28
 generated by VMD
  C1         6.450000       11.730001       12.370001
  C2         5.290000       11.680001       11.660000
  C3         5.810000       13.760000       11.850000
  N4         6.730000       13.050001       12.520000
  H5         6.990001       10.950001       12.880001
  H6         4.630000       10.870000       11.390000
  H7         5.800000       14.840001       11.740000
  C8         7.590001       13.630000       13.560000
  H9         7.930000       14.590001       13.160001
  H10        6.960001       13.950001       14.390000
  H11        8.450001       12.980001       13.730000
  N12        4.830000       12.940001       11.460000
  C13        3.440000       13.340001       11.140001
  H14        3.160000       13.070001       10.120001
  H15        3.490000       14.420000       11.120001
  C16        2.410000       12.950001       12.320002
  H17        1.430000       12.750001       11.870001
  H18        2.570000       11.990000       12.810000
  C19        2.130000       13.980001       13.410001
  H20        1.380000       13.570002       14.090000
  H21        1.680000       14.910001       13.040000
  S22        3.530000       14.710001       14.440001
  O23        2.990000       15.300001       15.650001
  O24        4.460000       13.560000       14.640001
  O25        4.140000       15.700001       13.480000
  OW         6.080000       11.800001       16.020000
  HW1        5.520000       12.400000       15.450001
  HW2        5.490000       11.200000       16.550001
28
 generated by VMD
  C1         6.400001       11.390000       11.290001
  C2         5.640000       12.300000       10.650001
  C3         5.930000       13.010001       12.690001
  N4         6.590000       11.870001       12.570001
  H5         6.820001       10.450001       10.970000
  H6         5.330000       12.280001        9.620001
  H7         5.940001       13.680000       13.550000
  C8         7.390000       11.260000       13.630000
  H9         6.950001       10.370001       14.070001
  H10        8.320000       11.030001       13.100000
  H11        7.560000       11.900001       14.490002
  N12        5.240001       13.240002       11.580001
  C13        4.010000       14.060000       11.440001
  H14        3.830000       14.150001       10.360001
  H15        4.260000       15.030001       11.870001
  C16        2.740000       13.320000       12.160001
  H17        1.990000       13.160001       11.380000
  H18        2.980000       12.280001       12.390001
  C19        2.090000       14.010000       13.420000
  H20        1.300000       13.440001       13.920001
  H21        1.700000       15.020000       13.240002
  S22        3.130000       14.420000       14.750000
  O23        2.300000       15.020000       15.850000
  O24        3.910000       13.180000       15.010000
  O25        4.170000       15.340000       14.190001
  OW         6.780000       15.340000       14.920001
  HW1        6.960001       15.930000       15.710001
  HW2        5.820000       15.410002       14.670001
28
 generated by VMD
  C1         6.670001       11.610001       11.090001
  C2         5.590000       12.090001       10.500001
  C3         5.710001       12.990000       12.570001
  N4         6.720000       12.130001       12.370001
  H5         7.350000       10.840001       10.780001
  H6         5.110001       11.860001        9.560000
  H7         5.610001       13.640001       13.430000
  C8         7.710000       11.790000       13.380001
  H9         7.420001       12.240001       14.330001
  H10        7.680000       10.710001       13.540001
  H11        8.650001       12.130001       12.970000
  N12        4.950000       12.920000       11.470001
  C13        3.660000       13.640001       11.300000
  H14        3.330000       13.540001       10.260000
  H15        3.830000       14.720001       11.340000
  C16        2.600000       13.140000       12.340001
  H17        1.750000       12.840000       11.720000
  H18        2.950000       12.210001       12.800001
  C19        2.090000       14.070001       13.380001
  H20        1.210000       13.560000       13.780001
  H21        1.700000       14.990001       12.950001
  S22        3.210000       14.560001       14.730000
  O23        2.430000       15.380001       15.600000
  O24        3.750000       13.300000       15.260000
  O25        4.280000       15.330001       14.000001
  OW         6.840000       14.740001       15.970001
  HW1        6.340000       14.320001       16.720001
  HW2        6.200000       15.220001       15.370001
28
 generated by VMD
  C1         6.380000       11.590000       12.720001
  C2         5.150001       11.370001       12.220000
  C3         5.730000       13.490001       11.740000
  N4         6.720000       12.870001       12.410001
  H5         7.010000       10.900001       13.240002
  H6         4.480000       10.530001       12.250000
  H7         5.520000       14.550000       11.610001
  C8         7.900000       13.630000       12.890000
  H9         8.540000       12.930001       13.410001
  H10        8.440001       13.970001       12.000000
  H11        7.520000       14.400001       13.560000
  N12        4.680000       12.650002       11.750001
  C13        3.350000       12.960000       11.210001
  H14        3.030000       12.150001       10.550001
  H15        3.390000       13.800001       10.520000
  C16        2.270000       13.370000       12.340001
  H17        1.350000       13.370000       11.760000
  H18        2.110000       12.550001       13.040000
  C19        2.470000       14.720001       13.030001
  H20        1.520000       15.020000       13.480000
  H21        2.740000       15.480001       12.300000
  S22        3.650000       14.830000       14.430000
  O23        2.980000       15.610001       15.440001
  O24        3.770000       13.380001       14.810000
  O25        4.910000       15.430001       13.830000
  OW         5.740000       11.920000       15.870001
  HW1        6.110000       12.750001       16.280001
  HW2        4.900000       12.120000       15.380001
28
 generated by VMD
  C1         6.470000       11.200000       12.100000
  C2         5.250000       11.420001       11.540001
  C3         5.920000       13.380001       12.390001
  N4         6.850000       12.460001       12.560000
  H5         7.030000       10.280000       12.120000
  H6         4.600000       10.780001       10.980000
  H7         5.920000       14.450001       12.570001
  C8         8.180000       12.870001       13.190001
  H9         8.080000       12.930001       14.270000
  H10        8.960000       12.180000       12.870001
  H11        8.370000       13.920001       12.970000
  N12        4.880000       12.750001       11.860001
  C13        3.560000       13.290001       11.460000
  H14        3.230000       12.660000       10.630001
  H15        3.620000       14.300001       11.050000
  C16        2.360000       13.170000       12.470001
  H17        1.460000       12.990000       11.890000
  H18        2.460000       12.280001       13.090000
  C19        1.990000       14.390000       13.380001
  H20        1.150000       14.250001       14.070001
  H21        1.800000       15.250001       12.740001
  S22        3.360000       14.980000       14.390000
  O23        2.800000       15.900001       15.380001
  O24        4.040000       13.810000       14.990001
  O25        4.250000       15.660001       13.340001
  OW         6.120000       12.200001       15.700001
  HW1        6.130000       12.240001       16.700001
  HW2        5.510000       12.920000       15.350000
28
 generated by VMD
  C1         5.750000       11.020000       12.010001
  C2         4.840000       11.800001       11.320001
  C3         6.110000       13.150001       12.550001
  N4         6.360001       11.920000       12.940001
  H5         5.840001        9.950001       12.160001
  H6         4.110000       11.430000       10.630001
  H7         6.420000       14.060000       13.040000
  C8         6.770000       11.600000       14.320001
  H9         6.280000       12.260000       15.020000
  H10        6.470000       10.570001       14.540001
  H11        7.860000       11.670000       14.310001
  N12        5.040000       13.120001       11.710000
  C13        4.220000       14.280001       11.380000
  H14        4.220000       14.320001       10.290001
  H15        4.650001       15.230001       11.720000
  C16        2.740000       14.130001       11.940001
  H17        2.020000       14.530001       11.220001
  H18        2.480000       13.070001       12.000000
  C19        2.400000       14.770001       13.290001
  H20        1.380000       14.510001       13.570002
  H21        2.480000       15.850000       13.240002
  S22        3.420000       14.110001       14.660001
  O23        2.830000       14.460001       15.950001
  O24        3.580000       12.630000       14.390000
  O25        4.740000       14.780001       14.440001
  OW         6.940000       16.270000       13.740001
  HW1        6.160001       15.850000       14.210001
  HW2        7.270000       17.050001       14.260001
28
 generated by VMD
  C1         6.150000       11.130000       11.730001
  C2         5.070000       11.720000       11.150000
  C3         5.980000       13.240002       12.420001
  N4         6.660000       12.090001       12.610001
  H5         6.610000       10.160000       11.690001
  H6         4.290000       11.300000       10.540000
  H7         6.130000       14.150001       12.990000
  C8         7.760000       11.940001       13.490001
  H9         7.770000       10.920000       13.860001
  H10        8.730000       12.110001       13.020000
  H11        7.650001       12.590000       14.370001
  N12        4.950000       12.980001       11.610001
  C13        3.890000       13.900002       11.270000
  H14        3.810000       13.860001       10.180000
  H15        4.330000       14.850000       11.570001
  C16        2.560000       13.640001       11.970000
  H17        1.780000       13.790001       11.220001
  H18        2.520000       12.570001       12.210001
  C19        2.140000       14.440001       13.230000
  H20        1.200000       14.040001       13.610001
  H21        2.000000       15.490000       12.960000
  S22        3.310000       14.480000       14.640001
  O23        2.580000       14.870001       15.850000
  O24        3.870000       13.100000       14.650001
  O25        4.370000       15.440001       14.130001
  OW         6.690001       14.800000       15.500001
  HW1        5.930000       14.980000       14.870001
  HW2        6.380000       14.970001       16.440001
28
 generated by VMD
  C1         5.720000       10.970000       12.280001
  C2         4.830000       11.620001       11.430000
  C3         6.000000       13.170000       12.510000
  N4         6.450000       11.950001       12.880001
  H5         5.940001        9.910001       12.320002
  H6         4.080000       11.250000       10.750000
  H7         6.480000       14.130001       12.670001
  C8         7.470000       11.880001       13.930000
  H9         7.020000       11.630001       14.890001
  H10        8.140000       11.090001       13.590001
  H11        8.000000       12.830001       14.020000
  N12        4.980000       13.010001       11.660000
  C13        4.120000       14.140000       11.180000
  H14        4.090000       14.070001       10.090000
  H15        4.600000       15.070001       11.450001
  C16        2.640000       13.980001       11.820001
  H17        1.960000       14.460001       11.110001
  H18        2.240000       12.960000       11.770000
  C19        2.300000       14.680000       13.170000
  H20        1.300000       14.390000       13.520001
  H21        2.280000       15.770000       13.050001
  S22        3.300000       14.310001       14.610001
  O23        2.440000       14.550000       15.740002
  O24        3.760000       12.880001       14.540001
  O25        4.530000       15.180001       14.490002
  OW         7.260000       15.520000       14.400001
  HW1        6.260000       15.520000       14.440001
  HW2        7.630000       16.010000       15.190001
28
 generated by VMD
  C1         6.260000       11.340000       12.260000
  C2         5.000000       11.460000       11.770000
  C3         5.910000       13.450001       12.020000
  N4         6.760001       12.610001       12.500000
  H5         6.820001       10.470000       12.560000
  H6         4.250000       10.720000       11.570001
  H7         5.940001       14.530001       12.140001
  C8         7.920001       13.040000       13.200001
  H9         8.470000       12.160001       13.530001
  H10        8.650001       13.500000       12.530001
  H11        7.690001       13.720001       14.010000
  N12        4.760000       12.840000       11.710000
  C13        3.540000       13.510000       11.180000
  H14        3.390000       13.040000       10.210000
  H15        3.860000       14.530001       11.000000
  C16        2.320000       13.400001       12.150001
  H17        1.450000       13.360001       11.490001
  H18        2.210000       12.400000       12.570001
  C19        2.100000       14.450001       13.250000
  H20        1.240000       14.090000       13.820001
  H21        1.890000       15.450001       12.860001
  S22        3.520000       14.710001       14.430000
  O23        2.980000       15.410002       15.600000
  O24        4.040000       13.340001       14.680000
  O25        4.450000       15.510001       13.560000
  OW         6.190000       12.780001       16.210001
  HW1        6.160001       13.350000       17.020000
  HW2        5.380001       12.950001       15.640001
28
 generated by VMD
  C1         6.470000       11.570001       12.640000
  C2         5.210000       11.420001       12.100000
  C3         5.830000       13.550000       11.990000
  N4         6.780000       12.930001       12.630000
  H5         7.180000       10.860001       13.040000
  H6         4.610000       10.530001       12.040001
  H7         5.800000       14.590001       11.690001
  C8         7.790000       13.600000       13.350000
  H9         8.730000       13.510000       12.820001
  H10        7.580000       14.670001       13.300000
  H11        7.850000       13.270000       14.390000
  N12        4.780000       12.710000       11.840000
  C13        3.400000       13.090000       11.280001
  H14        3.100000       12.330000       10.559999
  H15        3.430000       14.050001       10.780001
  C16        2.330000       13.150001       12.410001
  H17        1.350000       12.900001       12.000000
  H18        2.480000       12.360001       13.150001
  C19        2.190000       14.510001       13.180000
  H20        1.350000       14.380001       13.860001
  H21        2.080000       15.400001       12.570001
  S22        3.640000       14.950001       14.330001
  O23        3.130000       15.670000       15.500001
  O24        4.280000       13.650000       14.660001
  O25        4.620000       15.640001       13.430000
  OW         5.310000       11.340000       15.560001
  HW1        5.740000       11.780001       16.340000
  HW2        4.810000       12.030001       15.030001
28
 generated by VMD
  C1         6.360001       11.470001       12.250000
  C2         5.050000       11.560000       11.830001
  C3         5.920000       13.610001       12.110001
  N4         6.810000       12.720001       12.540001
  H5         6.870000       10.540000       12.420001
  H6         4.360000       10.770000       11.620001
  H7         5.940001       14.690001       12.140001
  C8         8.100000       13.170000       13.080001
  H9         8.890000       12.520000       12.730000
  H10        8.350000       14.180001       12.750001
  H11        8.160001       13.070001       14.160000
  N12        4.770000       12.930001       11.790000
  C13        3.490000       13.480000       11.390000
  H14        3.270000       12.940001       10.470000
  H15        3.640000       14.540001       11.190001
  C16        2.400000       13.230000       12.420001
  H17        1.470000       13.020000       11.880001
  H18        2.760000       12.330000       12.930001
  C19        2.070000       14.250001       13.440001
  H20        1.370000       13.820001       14.160000
  H21        1.740000       15.230001       13.070001
  S22        3.410000       14.780001       14.440001
  O23        2.880000       15.590000       15.550001
  O24        4.080000       13.480000       14.890001
  O25        4.310000       15.550001       13.520001
  OW         6.210001       12.110001       15.450001
  HW1        6.260000       12.150001       16.450001
  HW2        5.480000       12.710000       15.130001
28
 generated by VMD
  C1         6.430000       11.360001       12.460001
  C2         5.160000       11.400002       11.900001
  C3         5.860000       13.470001       12.070000
  N4         6.800000       12.700001       12.630000
  H5         7.120000       10.559999       12.670001
  H6         4.570000       10.510000       11.780001
  H7         5.940001       14.540001       11.960001
  C8         7.970000       13.330001       13.120001
  H9         8.500000       12.630000       13.760000
  H10        8.680000       13.660001       12.360001
  H11        7.690001       14.100000       13.830000
  N12        4.750000       12.710000       11.870001
  C13        3.390000       13.220000       11.410000
  H14        3.120000       12.470001       10.670000
  H15        3.500000       14.230001       11.020000
  C16        2.350000       13.170000       12.570001
  H17        1.400000       12.890000       12.100000
  H18        2.560000       12.310000       13.210001
  C19        2.110000       14.390000       13.470001
  H20        1.420000       14.080001       14.260001
  H21        1.600000       15.240001       13.020000
  S22        3.550000       14.970001       14.350000
  O23        3.110000       15.960001       15.300001
  O24        4.170000       13.760000       14.990001
  O25        4.400000       15.570001       13.300000
  OW         5.760000       11.670000       15.440001
  HW1        5.270000       11.640000       16.310001
  HW2        5.430000       12.450000       14.900002
28
 generated by VMD
  C1         6.640000       11.320001       11.250000
  C2         5.420001       11.650001       10.780001
  C3         5.700001       12.850000       12.650002
  N4         6.810000       12.150001       12.380000
  H5         7.390000       10.640000       10.890001
  H6         4.940000       11.270000        9.900001
  H7         5.600000       13.730000       13.270000
  C8         7.970000       12.260000       13.240002
  H9         7.970000       13.150001       13.870001
  H10        8.140000       11.380000       13.840000
  H11        8.800000       12.290001       12.530001
  N12        4.870000       12.600001       11.640000
  C13        3.570000       13.210001       11.510000
  H14        3.110000       12.800001       10.610001
  H15        3.690000       14.260001       11.220001
  C16        2.650000       13.020000       12.670001
  H17        1.750000       12.620001       12.190001
  H18        3.060000       12.250000       13.320000
  C19        2.150000       14.250001       13.430000
  H20        1.280000       14.000001       14.040001
  H21        1.820000       15.040001       12.750001
  S22        3.270000       15.030001       14.550000
  O23        2.530000       16.040001       15.350000
  O24        3.790000       13.860001       15.270000
  O25        4.410000       15.580001       13.700001
  OW         6.380000       13.320000       15.900001
  HW1        6.360001       13.690001       16.830002
  HW2        5.480000       13.410001       15.480001
28
 generated by VMD
  C1         5.800000       11.230000       11.920000
  C2         4.730000       11.820001       11.300000
  C3         5.950000       13.430000       12.180000
  N4         6.550000       12.270001       12.470001
  H5         6.030001       10.190001       12.040001
  H6         3.920000       11.310000       10.800000
  H7         6.220000       14.400001       12.580000
  C8         7.630000       12.190001       13.460001
  H9         8.570001       12.150001       12.910000
  H10        7.610001       13.140000       13.990001
  H11        7.540000       11.380000       14.180001
  N12        4.810000       13.190001       11.490001
  C13        3.720000       14.200001       11.260000
  H14        3.500000       14.240000       10.190001
  H15        4.140000       15.170001       11.500001
  C16        2.410000       13.910000       12.100000
  H17        1.510000       14.200001       11.560000
  H18        2.340000       12.830001       12.200001
  C19        2.250000       14.500000       13.490001
  H20        1.280000       14.150001       13.850001
  H21        2.160000       15.590000       13.490001
  S22        3.490000       14.070001       14.680000
  O23        2.900000       14.450001       15.970001
  O24        3.720000       12.610001       14.470000
  O25        4.700000       14.830000       14.260001
  OW         6.950001       15.600000       15.210000
  HW1        6.640000       15.710001       16.150002
  HW2        6.170001       15.360001       14.630001
28
 generated by VMD
  C1         6.110000       11.280001       11.660000
  C2         5.030000       11.870001       11.080000
  C3         5.960000       13.420000       12.250000
  N4         6.570000       12.230000       12.550001
  H5         6.350000       10.240001       11.580001
  H6         4.230000       11.450001       10.510000
  H7         6.240000       14.440001       12.510000
  C8         7.570000       12.010001       13.580000
  H9         7.140000       11.360001       14.350000
  H10        8.440001       11.570001       13.090000
  H11        7.840000       12.910000       14.140000
  N12        4.870000       13.150001       11.600000
  C13        3.790000       14.130001       11.270000
  H14        3.710000       14.110001       10.180000
  H15        4.150000       15.130001       11.450001
  C16        2.450000       13.890000       12.100000
  H17        1.690000       14.330001       11.440001
  H18        2.140000       12.850000       12.190001
  C19        2.190000       14.640001       13.470001
  H20        1.190000       14.410001       13.850001
  H21        2.400000       15.710001       13.460001
  S22        3.330000       14.130001       14.820002
  O23        2.730000       14.600000       16.070002
  O24        3.390000       12.650002       14.720001
  O25        4.660000       14.730000       14.480000
  OW         7.180000       15.480001       14.510001
  HW1        7.410001       15.890001       15.390000
  HW2        6.190000       15.330001       14.460001
28
 generated by VMD
  C1         5.700001       11.290001       12.220000
  C2         4.550000       11.730001       11.660000
  C3         5.990000       13.450001       11.990000
  N4         6.530001       12.330000       12.470001
  H5         5.970000       10.280000       12.490001
  H6         3.630000       11.220001       11.440001
  H7         6.340000       14.480000       12.070000
  C8         7.790000       12.300000       13.270000
  H9         8.350000       11.400002       13.050001
  H10        8.260000       13.250000       12.990000
  H11        7.430000       12.220000       14.300001
  N12        4.740000       13.130001       11.600000
  C13        3.680000       14.140000       11.290001
  H14        3.580000       14.090000       10.210000
  H15        4.100000       15.130001       11.490001
  C16        2.340000       13.900002       12.060001
  H17        1.580000       14.330001       11.400002
  H18        2.060000       12.840000       12.080001
  C19        2.250000       14.540001       13.440001
  H20        1.270000       14.360001       13.900002
  H21        2.340000       15.620001       13.300000
  S22        3.470000       14.140000       14.720001
  O23        2.950000       14.670001       15.980000
  O24        3.610000       12.640000       14.630001
  O25        4.670000       14.880000       14.240000
  OW         7.230000       15.100001       14.800000
  HW1        7.330000       15.490000       15.710001
  HW2        6.290000       15.210000       14.490002
28
 generated by VMD
  C1         5.700001       11.110001       11.720000
  C2         4.850000       11.880001       11.000000
  C3         5.930000       13.250000       12.240001
  N4         6.290000       12.030001       12.580000
  H5         5.900001       10.060000       11.780001
  H6         4.150000       11.620001       10.230000
  H7         6.140000       14.130001       12.840000
  C8         7.190001       11.690001       13.660001
  H9         7.210000       10.600000       13.790001
  H10        8.190001       12.060001       13.410001
  H11        6.770000       12.210001       14.510001
  N12        4.870000       13.200001       11.480000
  C13        3.720000       14.110001       11.330000
  H14        3.510000       14.070001       10.260000
  H15        4.030000       15.140000       11.440001
  C16        2.450000       13.750001       12.180000
  H17        1.560000       13.830000       11.550001
  H18        2.460000       12.670001       12.340001
  C19        2.210000       14.390000       13.570002
  H20        1.310000       13.950001       14.010000
  H21        2.060000       15.460001       13.410001
  S22        3.530000       14.240000       14.800000
  O23        2.880000       14.720001       15.970001
  O24        3.890000       12.770000       14.800000
  O25        4.610000       15.090000       14.270000
  OW         7.330000       15.710001       14.600000
  HW1        7.540000       16.490000       15.190001
  HW2        6.350000       15.540000       14.610001
28
 generated by VMD
  C1         5.760000       11.050000       11.880001
  C2         4.690000       11.600000       11.230000
  C3         5.810000       13.280001       12.200001
  N4         6.450000       12.100000       12.410001
  H5         6.070001       10.020000       11.950001
  H6         3.910000       11.130000       10.650001
  H7         5.910000       14.150001       12.840000
  C8         7.630000       12.020000       13.260001
  H9         8.230000       12.910000       13.110001
  H10        7.270000       12.160001       14.280001
  H11        8.180000       11.090001       13.170000
  N12        4.680000       12.950001       11.580001
  C13        3.560000       13.920001       11.250000
  H14        3.290000       13.560000       10.250001
  H15        4.010000       14.890001       11.090001
  C16        2.320000       13.760000       12.180000
  H17        1.420000       14.080001       11.650001
  H18        2.150000       12.710000       12.430000
  C19        2.240000       14.620000       13.470001
  H20        1.320000       14.440001       14.030001
  H21        2.200000       15.680000       13.250000
  S22        3.550000       14.440001       14.730000
  O23        2.970000       14.840001       16.049999
  O24        4.170000       13.060001       14.590001
  O25        4.590000       15.420000       14.210001
  OW         6.990001       14.740001       15.140000
  HW1        7.150001       14.970001       16.100002
  HW2        6.050000       14.960001       14.900002
28
 generated by VMD
  C1         5.800000       11.100000       11.700001
  C2         4.710000       11.770000       11.180000
  C3         5.950000       13.220000       12.300000
  N4         6.480000       11.990000       12.480000
  H5         6.200000       10.110001       11.610001
  H6         3.920000       11.400002       10.559999
  H7         6.250000       14.140000       12.800001
  C8         7.530000       11.820001       13.520001
  H9         7.080000       12.050000       14.490002
  H10        7.900000       10.800000       13.610001
  H11        8.360001       12.480000       13.310001
  N12        4.740000       13.070001       11.730001
  C13        3.680000       14.080001       11.410000
  H14        3.430000       13.900002       10.370001
  H15        4.110000       15.070001       11.560000
  C16        2.320000       13.850001       12.220000
  H17        1.490000       14.310001       11.680001
  H18        2.120000       12.790001       12.380000
  C19        2.190000       14.540001       13.530001
  H20        1.250000       14.320001       14.020000
  H21        2.280000       15.620001       13.410001
  S22        3.490000       14.340000       14.710001
  O23        2.990000       14.760000       16.010000
  O24        4.060000       12.940001       14.540001
  O25        4.500000       15.330001       14.150001
  OW         7.050000       15.100001       14.810000
  HW1        7.100000       14.830000       15.770000
  HW2        6.100000       15.310000       14.570000
28
 generated by VMD
  C1         5.580000       11.220001       11.930000
  C2         4.490000       11.790000       11.400002
  C3         5.800000       13.380001       12.080001
  N4         6.290000       12.220000       12.580000
  H5         5.860000       10.210000       12.190001
  H6         3.590000       11.340000       11.030001
  H7         6.100000       14.390000       12.330000
  C8         7.340000       12.030001       13.570002
  H9         7.010000       12.090001       14.610001
  H10        7.820001       11.050000       13.520001
  H11        7.990000       12.890000       13.420000
  N12        4.610000       13.150001       11.470001
  C13        3.500000       14.130001       11.180000
  H14        3.220000       14.010000       10.130000
  H15        3.890000       15.140000       11.340000
  C16        2.260000       13.880000       12.110001
  H17        1.420000       14.340000       11.580001
  H18        2.090000       12.810000       12.230000
  C19        2.210000       14.460001       13.550000
  H20        1.340000       14.020000       14.020000
  H21        2.220000       15.550001       13.470001
  S22        3.700000       14.230001       14.650001
  O23        3.360000       14.570000       16.030001
  O24        4.110000       12.780001       14.530001
  O25        4.690000       15.140000       14.030001
  OW         7.160000       15.120001       15.180001
  HW1        7.170000       15.620001       16.049999
  HW2        6.230000       15.130001       14.810000
28
 generated by VMD
  C1         5.970000       11.640000       12.630000
  C2         4.720000       11.650001       12.080001
  C3         5.640000       13.570002       11.550001
  N4         6.460000       12.900001       12.340001
  H5         6.360001       10.910001       13.320000
  H6         3.900000       10.950001       12.110001
  H7         5.700001       14.600000       11.210001
  C8         7.760000       13.490001       12.680000
  H9         7.700000       13.890000       13.690001
  H10        8.430000       12.630000       12.680000
  H11        8.100000       14.220000       11.950001
  N12        4.520000       12.900001       11.490001
  C13        3.230000       13.560000       11.210001
  H14        2.770000       13.140000       10.320001
  H15        3.410000       14.590001       10.900001
  C16        2.280000       13.330001       12.390001
  H17        1.250000       13.300000       12.020000
  H18        2.500000       12.360001       12.840000
  C19        2.280000       14.440001       13.460001
  H20        1.410000       14.370001       14.120001
  H21        2.220000       15.450001       13.060001
  S22        3.710000       14.630001       14.590001
  O23        3.280000       15.310000       15.760001
  O24        4.110000       13.230000       14.880000
  O25        4.710000       15.320001       13.680000
  OW         6.610000       12.210001       15.680000
  HW1        5.880000       12.840000       15.430001
  HW2        6.360001       11.720000       16.520000
