33
 generated by VMD
 C        18.420000        2.621000       13.844000
 C        18.590000        1.600000       14.767000
 C        16.433001        1.586000       14.100000
 N        17.082001        2.592000       13.438000
 H        19.125999        3.337000       13.469000
 H        19.465000        1.298000       15.309000
 H        15.380000        1.283000       13.986000
 C        16.473000        3.542000       12.525000
 H        17.233000        4.128000       11.986000
 H        15.831000        3.025000       11.776000
 H        15.812000        4.248000       13.084000
 N        17.356001        0.957000       14.900000
 C        17.037001       -0.039000       15.923000
 H        17.792000       -0.855000       15.878000
 H        16.042000       -0.505000       15.683000
 C        17.013000        0.613000       17.323999
 H        17.638000        0.012000       18.014999
 H        17.497999        1.614000       17.289000
 C        15.611000        0.744000       17.893999
 H        15.652000        1.177000       18.910999
 H        15.136000       -0.247000       18.018000
 S        14.491000        1.774000       16.896000
 O        13.670000        2.495000       17.853001
 O        15.349000        2.617000       15.996000
 O        13.794000        0.776000       16.018000
 P        12.805000        2.671000       13.285000
 O        13.713000        1.968000       12.375000
 O        13.526000        3.855000       14.083000
 H        14.182000        3.478000       14.793000
 O        11.687000        3.469000       12.478000
 H        11.093000        3.947000       13.176000
 O        11.978000        1.814000       14.312000
 H        12.661000        1.287000       14.968000
