12
 generated by VMD
  C1         9.780001       17.160000        6.690001
  C2         8.530001       17.660000        6.570000
  C3         9.090000       18.160002        8.580000
  N4        10.170001       17.560001        7.960001
  H5        11.070000       17.440001        8.380001
  H6        10.400001       16.660002        5.970000
  H7         7.820001       17.580002        5.750000
  H8         8.990001       18.610001        9.550000
  N9         8.090000       18.210001        7.740001
  OW         5.690000       16.680000        8.920000
  HW1        6.330000       17.360001        8.570001
  HW2        5.360000       16.110001        8.170000
12
 generated by VMD
  C1        10.170001       17.010000        7.110000
  C2         8.920000       16.570000        6.810000
  C3         8.620001       18.310001        7.890000
  N4         9.960001       18.120001        7.850000
  H5        10.610001       18.780001        8.250000
  H6        11.140001       16.630001        6.850000
  H7         8.580000       15.800000        6.140000
  H8         8.150001       19.139999        8.390000
  N9         7.960001       17.410000        7.290000
  OW         5.770000       17.640001        9.360001
  HW1        6.390000       17.280001        8.670000
  HW2        4.880000       17.180000        9.280001
12
 generated by VMD
  C1         9.990001       16.820000        7.130001
  C2         8.750001       16.550001        7.630000
  C3         8.920000       18.700001        7.620000
  N4        10.080000       18.190001        7.070000
  H5        10.750000       18.800001        6.630001
  H6        10.700001       16.120001        6.720000
  H7         8.330001       15.580001        7.880001
  H8         8.680000       19.750002        7.660000
  N9         8.100000       17.750000        7.970000
  OW         5.520000       17.170002        9.040001
  HW1        6.260000       17.470001        8.440001
  HW2        5.900001       16.740000        9.860001
12
 generated by VMD
  C1        10.370001       17.100000        7.580000
  C2         9.200000       16.660002        8.190001
  C3         8.580000       18.290001        6.960001
  N4         9.900001       18.150002        6.780000
  H5        10.520000       18.780001        6.290000
  H6        11.400002       16.810001        7.670000
  H7         9.070001       15.810001        8.840000
  H8         8.010000       19.090000        6.510000
  N9         8.120001       17.420002        7.810000
  OW         5.290000       17.430000        9.150001
  HW1        5.610001       18.200001        9.700001
  HW2        6.070001       17.020000        8.670000
12
 generated by VMD
  C1        10.170001       16.900002        7.300000
  C2         9.110001       16.590000        8.090000
  C3         8.710001       18.660000        7.400000
  N4         9.890000       18.210001        6.870000
  H5        10.520000       18.720001        6.280000
  H6        11.050000       16.360001        6.990001
  H7         8.830000       15.630001        8.500000
  H8         8.360001       19.670002        7.300000
  N9         8.200001       17.690001        8.170000
  OW         5.370000       17.110001        8.740000
  HW1        5.490000       17.300001        9.710001
  HW2        6.230000       17.270000        8.260000
12
 generated by VMD
  C1        10.390000       17.200001        7.290000
  C2         9.580001       16.639999        8.220000
  C3         8.470000       18.350000        7.520000
  N4         9.680000       18.290001        6.810000
  H5         9.920000       18.830002        6.000000
  H6        11.330000       16.910002        6.850000
  H7         9.720000       15.700001        8.730000
  H8         7.720000       19.110001        7.360001
  N9         8.350000       17.340000        8.340000
  OW         5.130000       17.310001        8.490001
  HW1        6.130000       17.410000        8.430000
  HW2        4.860000       17.240002        9.450001
12
 generated by VMD
  C1        10.370001       17.450001        7.760000
  C2         9.550000       18.130001        8.640000
  C3         8.290001       17.510000        6.970000
  N4         9.550000       17.080000        6.720000
  H5         9.870001       16.570000        5.910000
  H6        11.410000       17.180000        7.820001
  H7         9.950001       18.470001        9.580001
  H8         7.460001       17.300001        6.320000
  N9         8.230000       18.170000        8.130000
  OW         5.460000       17.100000        8.510000
  HW1        6.370000       17.510000        8.480000
  HW2        5.530000       16.100002        8.460000
12
 generated by VMD
  C1        10.310000       17.470001        7.720000
  C2         9.450001       16.500000        8.180000
  C3         8.280001       17.770000        6.950001
  N4         9.500000       18.310001        6.950001
  H5         9.710001       19.250000        6.660000
  H6        11.330000       17.720001        7.920001
  H7         9.750000       15.660001        8.780001
  H8         7.530000       18.340000        6.410000
  N9         8.200001       16.710001        7.710000
  OW         5.720000       18.120001        9.000000
  HW1        5.100000       17.410000        9.330000
  HW2        6.430000       17.700001        8.440001
12
 generated by VMD
  C1         9.970000       16.770000        7.200000
  C2         9.010000       16.700001        8.220000
  C3         8.780001       18.620001        7.320001
  N4         9.700001       17.990002        6.600000
  H5        10.050000       18.270000        5.700001
  H6        10.660001       16.040001        6.820001
  H7         8.680000       15.900001        8.860001
  H8         8.410000       19.560001        6.950001
  N9         8.300000       17.860001        8.260000
  OW         5.660000       17.200001        9.000000
  HW1        5.310000       18.120001        8.850000
  HW2        6.650000       17.190001        8.830000
12
 generated by VMD
  C1         9.500000       17.160000        6.410000
  C2         8.400001       16.750000        7.160000
  C3         9.490001       18.170000        8.360001
  N4        10.120001       18.120001        7.190001
  H5        10.850000       18.760000        6.920000
  H6         9.810000       16.880001        5.410000
  H7         7.620000       16.040001        6.950001
  H8         9.800000       18.790001        9.180000
  N9         8.420001       17.400002        8.390000
  OW         5.470000       17.520000        8.960000
  HW1        5.140000       16.590000        9.140000
  HW2        6.460000       17.510000        8.850000
12
 generated by VMD
  C1         9.180000       16.610001        7.190001
  C2         9.070001       17.010000        8.460000
  C3         8.970000       18.830002        7.350000
  N4         9.110001       17.770000        6.440001
  H5         9.190001       17.750000        5.440001
  H6         9.410001       15.650001        6.760001
  H7         9.140000       16.380001        9.340000
  H8         8.930000       19.860001        7.030000
  N9         8.930000       18.410000        8.580000
  OW         6.020000       16.780001        8.670000
  HW1        6.320000       15.920001        8.260000
  HW2        6.820001       17.300001        8.980000
12
 generated by VMD
  C1         9.660000       16.680000        7.080000
  C2         8.400001       17.040001        6.530001
  C3         8.890000       18.510000        8.130000
  N4         9.950001       17.670000        8.040000
  H5        10.780001       17.710001        8.600000
  H6        10.340000       15.910001        6.780000
  H7         7.810000       16.600000        5.740000
  H8         8.860001       19.350000        8.810000
  N9         7.980000       18.200001        7.230000
  OW         6.270000       17.100000        9.280001
  HW1        7.210000       17.090000        8.940001
  HW2        5.790000       17.900002        8.930000
12
 generated by VMD
  C1         9.920000       17.420002        6.550000
  C2         8.670000       17.760002        6.420000
  C3         8.970000       17.660000        8.500000
  N4        10.130000       17.290001        7.890000
  H5        10.950001       16.930000        8.340000
  H6        10.680000       17.190001        5.820000
  H7         8.270000       17.880001        5.420001
  H8         8.840000       17.610001        9.560000
  N9         8.040000       17.930000        7.620000
  OW         5.630000       17.210001        9.330000
  HW1        6.560000       17.340000        8.970000
  HW2        4.970000       17.680000        8.750001
12
 generated by VMD
  C1         9.760000       17.680000        6.460000
  C2         8.520000       18.090002        6.800000
  C3         9.270000       17.040001        8.510000
  N4        10.240001       17.040001        7.560000
  H5        11.160001       16.620001        7.530000
  H6        10.370001       17.820000        5.590000
  H7         7.850000       18.710001        6.230000
  H8         9.350000       16.610001        9.490001
  N9         8.240001       17.740000        8.070001
  OW         5.370000       17.620001        9.040001
  HW1        5.060000       17.180000        8.200001
  HW2        6.370000       17.660000        9.050000
12
 generated by VMD
  C1         9.540001       17.510000        6.460000
  C2         8.270000       17.320002        6.980000
  C3         9.550000       17.570002        8.680000
  N4        10.330000       17.750000        7.600000
  H5        11.280001       18.080002        7.630000
  H6         9.830000       17.580002        5.420001
  H7         7.300000       17.190001        6.540000
  H8         9.990001       17.600000        9.670001
  N9         8.310000       17.360001        8.340000
  OW         5.390000       17.580002        8.440001
  HW1        6.380000       17.430000        8.390000
  HW2        5.110001       17.610001        9.400001
12
 generated by VMD
  C1         9.810000       17.930000        6.570000
  C2         8.480000       17.630001        6.540000
  C3         9.160001       17.150000        8.580000
  N4        10.250001       17.600000        7.860000
  H5        11.220001       17.550001        8.120001
  H6        10.390000       18.250000        5.720000
  H7         7.740001       17.640001        5.760000
  H8         9.160001       16.740000        9.580001
  N9         8.080000       17.160000        7.790000
  OW         5.560000       17.620001        9.030001
  HW1        6.380000       17.250000        8.610001
  HW2        5.620000       18.620001        9.060000
12
 generated by VMD
  C1         9.970000       17.650002        6.590000
  C2         8.630000       17.690001        6.390000
  C3         8.950001       17.500002        8.520000
  N4        10.170001       17.440001        7.940001
  H5        11.080000       17.270000        8.350000
  H6        10.860001       17.680000        5.990000
  H7         8.050001       17.820000        5.480000
  H8         8.840000       17.250000        9.560000
  N9         7.990000       17.550001        7.610001
  OW         5.660000       17.360001        9.260000
  HW1        6.440001       17.420002        8.630000
  HW2        4.980000       18.060001        9.020000
12
 generated by VMD
  C1         9.190001       18.060001        6.630001
  C2         8.540000       16.840002        6.810000
  C3         9.480000       17.230000        8.640000
  N4         9.760000       18.320002        7.850000
  H5        10.290001       19.150002        8.090000
  H6         9.250001       18.750002        5.800000
  H7         8.060000       16.320002        6.010000
  H8         9.760000       17.290001        9.680000
  N9         8.730000       16.330002        8.060000
  OW         5.690000       18.100000        8.570001
  HW1        5.260000       17.780001        7.730000
  HW2        6.410000       17.470001        8.840000
12
 generated by VMD
  C1         9.660000       16.930000        6.810000
  C2         8.410000       17.290001        6.480000
  C3         8.880001       18.410000        8.250000
  N4        10.000000       17.660000        7.920001
  H5        10.870000       17.540001        8.430000
  H6        10.380001       16.290001        6.340000
  H7         7.790000       16.930000        5.670000
  H8         8.770000       18.950001        9.180000
  N9         7.900000       18.190001        7.390000
  OW         6.300001       16.920000        9.410001
  HW1        6.310000       15.980000        9.060000
  HW2        6.730000       17.530001        8.750001
12
 generated by VMD
  C1        10.120001       16.990002        7.150001
  C2         9.080001       16.590000        8.010000
  C3         8.620001       18.570002        7.350000
  N4         9.740001       18.230001        6.650000
  H5        10.180000       18.760000        5.920000
  H6        10.990001       16.420000        6.900001
  H7         9.020000       15.710001        8.630000
  H8         8.060000       19.470001        7.160000
  N9         8.180000       17.680000        8.160001
  OW         5.660000       17.160000        9.190001
  HW1        5.460000       16.290001        8.730000
  HW2        6.580000       17.460001        8.940001
12
 generated by VMD
  C1        10.360001       17.850000        7.280001
  C2         9.790000       17.880001        8.550000
  C3         8.210000       17.250000        7.130001
  N4         9.310000       17.620001        6.400001
  H5         9.350000       17.650002        5.400000
  H6        11.360001       18.070000        6.940000
  H7        10.240001       18.150002        9.490001
  H8         7.270000       17.010000        6.640000
  N9         8.410000       17.440001        8.400001
  OW         5.450000       17.200001        8.820001
  HW1        5.330000       17.110001        9.810000
  HW2        6.430000       17.280001        8.620001
