29
 generated by VMD
  C1        16.300001       11.250000       12.680000
  C2        15.680000       10.500001       13.570002
  C3        14.640001       10.200001       11.720000
  N4        15.620001       11.110001       11.480000
  H5        15.780001       11.560000       10.590000
  H6        17.220001       11.810001       12.700001
  H7        15.890001       10.420000       14.630001
  H8        14.030001        9.790000       10.930000
  N9        14.620000        9.890000       13.000001
  P1        15.900001       11.000000        7.730000
  O2        14.990001       11.890000        8.430000
  O3        17.240002       11.630001        7.170000
  H4        17.820000       10.910001        6.910000
  O5        16.550001        9.810000        8.500000
  H6        15.880001        9.130000        8.600000
  O7        15.360001       10.290001        6.440001
  H8        15.060000       11.040001        5.920000
  OW        14.390000       12.470001        5.020000
  HW1       14.500000       12.950001        4.150000
  HW2       14.130001       13.130001        5.730000
  OW        14.620000        7.960001        9.020000
  HW1       14.650001        7.330000        9.800000
  HW2       13.800001        7.770000        8.480000
  OW        14.330001        6.960001       11.770000
  HW1       14.560001        7.800000       12.270001
  HW2       13.630000        6.460000       12.270001
  OW        13.640001       14.160000        7.230000
  HW1       14.340000       13.660001        7.730000
  HW2       13.110001       14.720001        7.860000
29
 generated by VMD
  C1        16.490000        9.510000       12.600001
  C2        15.270000        9.640000       13.240002
  C3        15.170001       10.910001       11.510000
  N4        16.380001       10.270000       11.460000
  H5        17.090000       10.460000       10.760001
  H6        17.330000        8.920000       12.940001
  H7        14.910001        9.080001       14.100000
  H8        14.880000       11.640000       10.770000
  N9        14.490002       10.500001       12.530001
  P1        16.360001       11.610001        7.640000
  O2        15.210000       12.320002        8.200001
  O3        17.640001       12.400000        7.380000
  H4        18.260000       11.660000        7.440000
  O5        17.020000       10.510000        8.500000
  H6        16.310001        9.860001        8.550000
  O7        16.140001       10.800000        6.310000
  H8        15.320001       10.310000        6.480000
  OW        13.600000        9.730000        6.440001
  HW1       13.050001        9.680000        5.610001
  HW2       13.190001       10.400001        7.070000
  OW        14.800000        8.920000        8.790001
  HW1       14.070001        9.090000        9.460000
  HW2       14.440001        8.370000        8.040000
  OW        12.620001        9.830000       10.530001
  HW1       13.240002       10.270000       11.190001
  HW2       11.730001        9.680000       10.970000
  OW        12.700001       11.510000        8.320000
  HW1       13.500000       12.090001        8.470000
  HW2       12.670001       10.800000        9.040001
29
 generated by VMD
  C1        15.820000       11.260000       11.650001
  C2        15.490000       10.440001       12.670001
  C3        13.760000       10.559999       11.440001
  N4        14.660001       11.350001       10.840001
  H5        14.460001       11.880001       10.010000
  H6        16.740000       11.780001       11.430000
  H7        16.150002       10.100000       13.450001
  H8        12.770000       10.500001       11.010000
  N9        14.170000       10.010000       12.540001
  P1        16.639999       11.030001        7.610001
  O2        15.850000       12.180000        8.070001
  O3        17.990002       11.430000        6.920000
  H4        18.220001       10.520000        6.670001
  O5        17.180000       10.060000        8.690001
  H6        16.440001        9.740001        9.220000
  O7        15.980000       10.060000        6.600000
  H8        15.360001        9.590000        7.170000
  OW        12.650002       10.930000        7.900000
  HW1       11.980000       10.810001        7.170000
  HW2       13.060001       11.840000        7.840000
  OW        14.520000        8.830000        8.690001
  HW1       14.560001        8.190001        9.460000
  HW2       13.720001        9.420000        8.790001
  OW        14.580001        7.570000       11.080000
  HW1       14.230001        8.370000       11.570001
  HW2       14.570000        6.780000       11.680001
  OW        13.590001       13.580000        8.240001
  HW1       14.480000       13.140000        8.130000
  HW2       13.710001       14.570000        8.290001
29
 generated by VMD
  C1        15.950001       11.130000       12.110001
  C2        15.420000       10.010000       12.690001
  C3        13.830000       10.950001       11.610001
  N4        15.020000       11.580001       11.280001
  H5        15.190001       12.280001       10.570001
  H6        16.920000       11.600000       12.190001
  H7        15.980000        9.350000       13.340001
  H8        12.880001       11.080000       11.120001
  N9        14.090000        9.920000       12.450000
  P1        16.670000       11.010000        7.820001
  O2        15.570001       11.790000        8.430000
  O3        17.710001       11.860001        7.050000
  H4        18.200001       11.090001        6.720000
  O5        17.540001       10.000000        8.680000
  H6        16.870001        9.400001        9.010000
  O7        16.200001       10.110001        6.650000
  H8        15.410002        9.680000        6.990001
  OW        12.190001       10.460000        8.770000
  HW1       11.370001       10.280000        9.320001
  HW2       12.150001       11.400002        8.420001
  OW        14.030001        8.880001        7.720000
  HW1       13.370000        8.220000        7.360001
  HW2       13.550000        9.540001        8.300000
  OW        15.650001        8.600000        9.880000
  HW1       14.960001        8.590000        9.160001
  HW2       15.240001        8.970000       10.720000
  OW        13.110001       12.940001        8.010000
  HW1       14.030001       12.550001        8.030001
  HW2       13.130001       13.810000        7.520000
29
 generated by VMD
  C1        14.830000       11.520000       11.780001
  C2        15.320001       10.580001       12.650002
  C3        14.020000        9.530001       11.320001
  N4        13.950001       10.830001       10.930000
  H5        13.470001       11.150000       10.110001
  H6        14.820002       12.600001       11.850000
  H7        15.970001       10.790000       13.480000
  H8        13.380001        8.800000       10.840001
  N9        14.850000        9.330000       12.340001
  P1        16.610001       10.980000        7.770000
  O2        15.520000       11.800001        8.330001
  O3        17.440001       11.600000        6.670001
  H4        18.190001       10.990001        6.610000
  O5        17.810001       10.460000        8.650001
  H6        17.400002        9.760000        9.170000
  O7        16.220001        9.590000        7.120000
  H8        15.370001        9.500000        7.570000
  OW        12.110001       11.390000        8.750001
  HW1       11.310000       11.790000        9.210001
  HW2       12.660000       12.120000        8.340000
  OW        13.610001        9.170000        8.100000
  HW1       13.030001        8.520000        7.610001
  HW2       13.140000       10.060000        8.150001
  OW        16.760002        8.540000       10.220001
  HW1       16.740000        7.550001       10.080000
  HW2       16.330002        8.770000       11.100000
  OW        13.660001       13.560000        8.260000
  HW1       14.450001       12.960000        8.120001
  HW2       13.940001       14.510001        8.090000
29
 generated by VMD
  C1        15.450001       10.870000       11.960001
  C2        15.550001        9.710001       12.720001
  C3        13.450001        9.950001       12.500000
  N4        14.070001       11.050000       11.840000
  H5        13.630000       11.720000       11.230000
  H6        16.110001       11.580001       11.500001
  H7        16.390001        9.110001       13.060001
  H8        12.390001        9.750000       12.540001
  N9        14.320001        9.220000       13.000001
  P1        16.680000       11.440001        6.950001
  O2        15.880001       12.490001        7.570000
  O3        17.790001       11.880001        5.960000
  H4        18.400000       11.130000        5.910000
  O5        17.650002       10.650001        7.920001
  H6        17.120001       10.320001        8.650001
  O7        15.920001       10.230000        6.250000
  H8        15.260000       10.070001        6.940000
  OW        12.440001       10.840001        8.490001
  HW1       11.450001       10.970000        8.540000
  HW2       12.900001       11.710000        8.630000
  OW        15.150002        9.460000        8.840000
  HW1       15.240001        8.720000        9.500000
  HW2       14.200001        9.770000        8.820001
  OW        14.470000        7.360001       10.590000
  HW1       13.960000        6.510000       10.740000
  HW2       14.400001        7.940001       11.410000
  OW        13.840000       13.250000        9.250001
  HW1       14.680000       13.280001        8.710001
  HW2       13.930000       13.840000       10.050000
29
 generated by VMD
  C1        15.840001       11.000000       12.050000
  C2        15.570001       10.110001       12.990000
  C3        13.750001       10.200001       11.860001
  N4        14.700001       11.030001       11.280001
  H5        14.630001       11.610001       10.460000
  H6        16.740000       11.530000       11.770000
  H7        16.320002        9.670001       13.630000
  H8        12.750001       10.010000       11.530000
  N9        14.300001        9.630001       12.890000
  P1        16.760002       11.050000        7.530000
  O2        15.940001       11.860001        8.400001
  O3        17.889999       11.800001        6.800000
  H4        18.320002       11.020000        6.420000
  O5        17.600000        9.820001        8.180000
  H6        16.900002        9.490001        8.750001
  O7        15.920001       10.330000        6.380000
  H8        15.200001       10.010000        6.930000
  OW        11.950001       10.820000        9.010000
  HW1       11.260000       10.800000        9.740001
  HW2       12.490001       11.660000        9.090000
  OW        13.620001        9.590000        7.420001
  HW1       13.130001        9.380000        6.570000
  HW2       12.990000        9.990001        8.080000
  OW        15.400001        8.710001        9.360001
  HW1       14.620000        8.720000        8.740000
  HW2       15.200001        8.120001       10.140000
  OW        13.650000       12.930001        9.370001
  HW1       14.430000       12.630000        8.810000
  HW2       13.840000       13.840000        9.730000
29
 generated by VMD
  C1        16.410000       10.340000       12.270001
  C2        15.750000        9.340000       12.880001
  C3        14.230001       10.420000       11.780001
  N4        15.460001       11.000000       11.540001
  H5        15.580001       11.740000       10.860001
  H6        17.480000       10.420000       12.190001
  H7        16.170002        8.600000       13.540001
  H8        13.300000       10.780001       11.370001
  N9        14.380001        9.390000       12.590000
  P1        16.510000       11.210001        7.780001
  O2        15.710001       12.050000        8.730000
  O3        17.470001       11.940001        6.840000
  H4        17.670000       11.200000        6.260000
  O5        17.510000       10.120001        8.320000
  H6        16.960001        9.500000        8.810000
  O7        15.600000       10.380001        6.800000
  H8        15.000001        9.970000        7.430000
  OW        12.010001       11.130000        7.820001
  HW1       11.060000       11.360001        7.610001
  HW2       12.410001       11.850000        8.380001
  OW        13.620001        8.990001        7.760000
  HW1       13.180000        8.170000        7.400000
  HW2       12.970000        9.760000        7.730000
  OW        15.570001        8.580000        9.460000
  HW1       14.770001        8.620001        8.850000
  HW2       15.270000        8.280001       10.370001
  OW        13.290001       13.530001        8.820001
  HW1       14.220000       13.170000        8.860001
  HW2       13.320000       14.520000        8.660001
29
 generated by VMD
  C1        17.400002       11.820001       12.480000
  C2        16.700001       11.840000       13.720001
  C3        15.570001       10.500001       12.510000
  N4        16.580002       11.050000       11.720000
  H5        16.710001       10.760001       10.760001
  H6        18.260000       12.380000       12.160001
  H7        16.880001       12.500000       14.550000
  H8        14.730000        9.930000       12.160001
  N9        15.580001       11.040001       13.700001
  P1        16.200001       10.100000        8.220000
  O2        15.230001       10.690001        9.120001
  O3        17.510000        9.640000        8.840000
  H4        17.800001        9.030001        8.150001
  O5        15.890001        8.810000        7.480000
  H6        14.940001        8.790001        7.300000
  O7        16.570000       11.020000        7.000000
  H8        15.660001       11.190001        6.740000
  OW        11.490001       11.010000        7.100000
  HW1       10.590000       11.400002        6.940000
  HW2       11.790000       11.230000        8.030001
  OW        14.160000       11.820001        6.050000
  HW1       13.290001       11.650001        6.530001
  HW2       14.050001       12.600001        5.440001
  OW        13.170000        8.840000        6.990001
  HW1       12.510000        9.580001        6.990001
  HW2       12.810000        8.070001        6.460000
  OW        13.010001       12.160001        9.150001
  HW1       13.740001       11.520000        9.410001
  HW2       13.390001       13.090000        9.110001
29
 generated by VMD
  C1        16.310001       11.690001       12.490001
  C2        15.160000       11.880001       13.100000
  C3        15.000001        9.910001       12.190001
  N4        16.210001       10.460000       11.920000
  H5        16.880001       10.040001       11.290001
  H6        17.210001       12.290001       12.500000
  H7        14.840001       12.760000       13.630000
  H8        14.690001        8.940001       11.820001
  N9        14.310001       10.760001       12.920000
  P1        16.510000       10.030001        7.810000
  O2        16.210001       11.150000        8.720000
  O3        17.970001        9.480000        7.980000
  H4        17.920000        8.690001        7.440000
  O5        15.780001        8.750001        8.110001
  H6        14.860001        9.030001        8.120001
  O7        16.240002       10.160000        6.240000
  H8        15.370001       10.550001        6.350000
  OW        12.940001       13.090000        7.760000
  HW1       12.820001       14.090000        7.810000
  HW2       13.210001       12.740001        8.660001
  OW        13.590001       10.990001        6.070001
  HW1       13.250000       11.710000        6.680000
  HW2       13.130001       11.050000        5.190001
  OW        13.300000        9.580001        8.460000
  HW1       12.910000        9.870001        7.580000
  HW2       13.200001       10.310000        9.130000
  OW        14.080001       12.050000        9.990001
  HW1       14.920001       11.720000        9.570000
  HW2       14.110001       11.870001       10.980000
29
 generated by VMD
  C1        16.600000       11.620001       12.690001
  C2        15.310000       11.880001       13.010001
  C3        15.270000       10.030001       11.970000
  N4        16.560001       10.410000       11.980000
  H5        17.330000        9.830000       11.700001
  H6        17.490002       12.170000       12.930001
  H7        14.870001       12.660000       13.610001
  H8        15.090000        9.100000       11.450001
  N9        14.470000       10.880001       12.540001
  P1        16.370001       10.210000        8.280001
  O2        15.890001       11.520000        8.680000
  O3        17.530001        9.590000        9.170000
  H4        17.710001        8.760000        8.700001
  O5        15.380001        9.020000        8.280001
  H6        14.600000        9.270000        7.770000
  O7        16.990002       10.130000        6.810000
  H8        16.300001       10.460000        6.220000
  OW        11.860001       11.890000        7.960001
  HW1       11.100000       12.540001        7.960001
  HW2       12.390001       12.000000        8.800000
  OW        14.860001       10.900001        5.200000
  HW1       14.470000       11.270000        4.360000
  HW2       14.130001       10.710001        5.850000
  OW        13.190001        9.660000        6.990001
  HW1       12.600001       10.420000        7.260000
  HW2       12.630000        8.890000        6.690001
  OW        13.720001       12.330000        9.910001
  HW1       14.570000       12.400000        9.390000
  HW2       13.890000       11.830001       10.760001
29
 generated by VMD
  C1        16.480001       12.160001       11.120001
  C2        15.640001       13.150001       11.500001
  C3        14.770001       11.410000       12.380000
  N4        15.910001       11.050000       11.720000
  H5        16.200001       10.100000       11.550001
  H6        17.360001       12.240001       10.510000
  H7        15.720000       14.180001       11.190001
  H8        14.060000       10.740000       12.840000
  N9        14.620000       12.740001       12.240001
  P1        16.260000        9.340000        8.180000
  O2        15.030001        9.240000        8.970000
  O3        17.490002        8.500000        8.750001
  H4        18.160002        8.700001        8.080000
  O5        16.360001        9.040001        6.690001
  H6        15.640001        9.450001        6.200000
  O7        16.790001       10.810001        8.160001
  H8        16.080000       11.310000        7.740001
  OW        12.950001       12.300000        9.520000
  HW1       13.190001       12.800001       10.360001
  HW2       12.690001       11.370001        9.750000
  OW        14.500000       12.180000        7.410001
  HW1       14.770001       13.140000        7.450001
  HW2       13.800001       12.000000        8.110001
  OW        14.240000       10.050000        5.700001
  HW1       13.410001        9.960001        5.160000
  HW2       14.240000       10.930000        6.170001
  OW        12.810000        9.790000       10.340000
  HW1       13.640001        9.500000        9.870001
  HW2       12.340001        8.990001       10.700001
29
 generated by VMD
  C1        17.090000       12.440001       11.430000
  C2        16.180000       13.450001       11.580001
  C3        15.090000       11.550001       11.940001
  N4        16.440001       11.240001       11.700001
  H5        16.670000       10.270000       11.570001
  H6        18.130001       12.440001       11.140001
  H7        16.400002       14.510001       11.530000
  H8        14.370001       10.750000       12.040001
  N9        14.930000       12.850000       11.860001
  P1        16.220001        9.410001        8.330001
  O2        15.300001        9.130000        9.420000
  O3        17.510000        8.560000        8.300000
  H4        17.720001        8.720000        7.380000
  O5        15.750000        9.130000        6.870000
  H6        15.090000        9.790000        6.600000
  O7        16.660002       10.890001        8.220000
  H8        15.860001       11.420001        8.300000
  OW        12.130001       11.070000        7.850000
  HW1       11.200000       11.430000        7.840000
  HW2       12.210001       10.370001        8.570001
  OW        14.490002       12.190001        8.900001
  HW1       14.620000       12.630000        9.790000
  HW2       13.540001       11.900001        8.800000
  OW        13.900002       10.820000        6.070001
  HW1       13.930000       11.710000        5.620000
  HW2       13.310001       10.860001        6.880000
  OW        12.770000        9.240000        9.980000
  HW1       13.740001        9.400001        9.830000
  HW2       12.620001        8.280001       10.190001
29
 generated by VMD
  C1        16.630001       10.060000       11.860001
  C2        15.680000        9.770000       12.830001
  C3        14.920001       11.330000       11.650001
  N4        16.120001       11.080000       11.120001
  H5        16.400002       11.490001       10.240001
  H6        17.600000        9.650001       11.640000
  H7        15.870001        9.060000       13.610001
  H8        14.270000       12.090001       11.250000
  N9        14.580001       10.590000       12.690001
  P1        16.440001       10.870000        7.460001
  O2        16.040001       11.840000        8.480000
  O3        17.780001       11.050000        6.720000
  H4        17.740000       10.200001        6.270000
  O5        16.630001        9.360001        7.780001
  H6        15.790001        9.070001        8.170000
  O7        15.440001       10.830001        6.320000
  H8        14.600000       10.890001        6.800000
  OW        12.920000        8.850000       11.200000
  HW1       13.290001        9.570000       11.790000
  HW2       12.660000        8.060000       11.760000
  OW        12.910000       11.130000        7.610001
  HW1       13.250000       11.920000        8.130000
  HW2       11.990000       11.320001        7.280001
  OW        13.990001        8.920000        8.640000
  HW1       13.270000        9.440001        8.170000
  HW2       13.820001        8.940001        9.630001
  OW        13.840000       13.410001        8.860001
  HW1       14.810000       13.180000        8.830000
  HW2       13.710001       14.270000        9.350000
29
 generated by VMD
  C1        16.490000        9.990001       12.170000
  C2        15.410002       10.020000       13.010001
  C3        15.020000       11.430000       11.390000
  N4        16.130001       10.790000       11.150000
  H5        16.530001       10.920000       10.240001
  H6        17.420002        9.460000       12.080001
  H7        15.250001        9.550000       13.960000
  H8        14.570000       12.180000       10.760001
  N9        14.490002       10.940001       12.510000
  P1        16.400002       10.820000        7.330000
  O2        16.490000       11.820001        8.370000
  O3        17.640001       10.830001        6.370000
  H4        17.440001       10.040001        5.850000
  O5        16.460001        9.300001        7.710000
  H6        15.680000        9.240000        8.260000
  O7        15.120001       10.830001        6.390000
  H8        14.360001       10.920000        6.980000
  OW        12.970000        8.400001       11.430000
  HW1       13.360001        9.230000       11.820001
  HW2       12.780001        7.740001       12.160001
  OW        12.810000       11.310000        8.160001
  HW1       13.080001       12.270001        8.250000
  HW2       11.970000       11.260000        7.610001
  OW        14.310001        9.120001        9.050000
  HW1       13.630000        9.800000        8.750001
  HW2       13.930000        8.600000        9.820001
  OW        14.140000       13.630000        8.300000
  HW1       15.090000       13.300000        8.310000
  HW2       14.080001       14.490002        8.790001
29
 generated by VMD
  C1        16.820000       10.030001       12.000000
  C2        15.750000        9.960001       12.910000
  C3        15.470000       11.700001       11.690001
  N4        16.650002       11.170001       11.300000
  H5        17.180000       11.470001       10.500001
  H6        17.680000        9.380000       11.980000
  H7        15.540000        9.180000       13.630000
  H8        15.040001       12.610001       11.300000
  N9        14.910001       10.970000       12.670001
  P1        16.300001       10.830001        7.370000
  O2        15.970001       11.990000        8.170000
  O3        17.520000       11.030001        6.400001
  H4        17.440001       10.250001        5.840001
  O5        16.600000        9.410001        7.940001
  H6        15.830001        9.130000        8.440001
  O7        15.130001       10.540000        6.390000
  H8        14.440001       10.360001        7.030000
  OW        12.950001        8.850000       11.520000
  HW1       13.390001        9.670001       11.890000
  HW2       12.350000        8.460000       12.220000
  OW        12.470001       10.890001        7.840000
  HW1       12.790001       11.830001        7.910000
  HW2       11.500001       10.880001        7.630000
  OW        14.220000        8.860001        8.940001
  HW1       13.460001        9.430000        8.630000
  HW2       14.020000        8.500000        9.840000
  OW        13.610001       13.180000        8.270000
  HW1       14.500000       12.780001        8.470000
  HW2       13.720001       13.930000        7.620000
29
 generated by VMD
  C1        17.420002       10.370001       11.820001
  C2        16.730001       10.240001       12.990000
  C3        15.580001       11.550001       11.700001
  N4        16.639999       11.120001       10.980000
  H5        16.930000       11.360001       10.050000
  H6        18.330000        9.930000       11.460000
  H7        17.050001        9.650001       13.840000
  H8        14.770001       12.230000       11.480000
  N9        15.580001       10.980000       12.930001
  P1        16.120001       10.740000        7.390000
  O2        15.770000       11.940001        8.160001
  O3        17.550001       10.620001        6.950001
  H4        17.510000        9.710001        6.620001
  O5        16.130001        9.400001        8.090000
  H6        15.340000        9.160001        8.590000
  O7        15.310000       10.430001        6.140000
  H8        14.420000       10.700001        6.400001
  OW        12.860001        9.510000       11.590000
  HW1       13.700001        9.930000       11.920000
  HW2       12.480000        8.910000       12.290001
  OW        12.720001       10.970000        6.710000
  HW1       12.750001       11.490001        7.560000
  HW2       11.860001       11.150000        6.230000
  OW        13.700001        9.130000        9.040001
  HW1       12.970000        8.940001        8.380001
  HW2       13.300000        9.310000        9.930000
  OW        12.980001       12.610001        8.840000
  HW1       13.960000       12.400000        8.850000
  HW2       12.700001       12.930001        9.750000
29
 generated by VMD
  C1        16.680000       11.740000       11.410000
  C2        16.590000       10.790000       12.390001
  C3        14.540001       11.330000       11.920000
  N4        15.380001       12.090001       11.110001
  H5        15.140000       12.750001       10.380001
  H6        17.500002       12.310000       11.000000
  H7        17.390001       10.260000       12.880001
  H8        13.460001       11.370001       11.840000
  N9        15.230001       10.520000       12.680000
  P1        16.120001       10.220001        7.210000
  O2        15.690001       11.580001        7.690001
  O3        17.280001       10.170001        6.210001
  H4        17.270000        9.230000        6.020000
  O5        16.570000        9.140000        8.230000
  H6        15.920001        9.160001        8.940001
  O7        15.010000        9.380000        6.560000
  H8        14.350000        9.490001        7.260000
  OW        14.960001        8.280001       10.720000
  HW1       15.560001        7.540000       11.040001
  HW2       14.860001        8.960000       11.440001
  OW        12.370001       11.960001        9.620001
  HW1       13.050001       12.630000        9.310000
  HW2       11.470001       12.220000        9.270000
  OW        13.420000        9.460000        8.710001
  HW1       13.040000       10.280000        9.140000
  HW2       13.690001        8.810000        9.410001
  OW        14.320001       13.630000        8.760000
  HW1       14.790001       12.910000        8.230000
  HW2       14.350000       14.490002        8.250000
29
 generated by VMD
  C1        16.780001       11.660000       11.450001
  C2        16.639999       10.490000       12.110001
  C3        14.650001       11.310000       11.930000
  N4        15.490000       12.190001       11.320001
  H5        15.140000       12.960000       10.770000
  H6        17.660000       12.250000       11.240001
  H7        17.370001        9.770000       12.430000
  H8        13.580000       11.440001       11.960001
  N9        15.290001       10.260000       12.330000
  P1        16.220001       10.210000        7.430000
  O2        15.740002       11.510000        7.900000
  O3        17.480000       10.230000        6.460000
  H4        17.500002        9.280001        6.270000
  O5        16.660002        9.170000        8.450001
  H6        15.910001        9.060000        9.050000
  O7        15.080000        9.430000        6.700000
  H8        14.260001        9.640000        7.170000
  OW        15.020000        8.290001       10.420000
  HW1       15.200001        7.350000       10.700001
  HW2       14.900002        8.860001       11.230000
  OW        12.090001       12.180000        9.610001
  HW1       12.880001       12.700001        9.280001
  HW2       11.370001       12.810000        9.900001
  OW        13.060001        9.760000        8.350000
  HW1       12.520000       10.530001        8.670000
  HW2       13.040000        9.030001        9.040001
  OW        14.090000       13.470001        8.510000
  HW1       14.660001       12.740001        8.140000
  HW2       14.160000       14.280001        7.930000
29
 generated by VMD
  C1        16.860001       10.580001       11.520000
  C2        16.110001       10.210000       12.640000
  C3        14.980000       11.750001       11.570001
  N4        16.130001       11.580001       10.850000
  H5        16.440001       12.080001       10.030001
  H6        17.770000       10.210000       11.100000
  H7        16.370001        9.520000       13.430000
  H8        14.190001       12.420001       11.270000
  N9        14.970001       10.990001       12.640000
  P1        16.170002       10.550001        7.150001
  O2        15.980000       11.790000        7.910000
  O3        17.160000       10.580001        5.940001
  H4        17.080000        9.640000        5.740000
  O5        16.660002        9.330000        7.890000
  H6        15.940001        9.180000        8.520000
  O7        14.970001        9.830000        6.480000
  H8        14.430000        9.710001        7.260000
  OW        13.940001        8.330001       11.770000
  HW1       13.760000        7.600000       12.430000
  HW2       13.950001        9.210001       12.240001
  OW        12.300000       11.460000        8.950001
  HW1       12.860001       12.290001        8.940001
  HW2       11.340000       11.720000        9.070001
  OW        13.930000        9.310000        9.160001
  HW1       13.270000       10.060000        9.050000
  HW2       13.990001        9.050000       10.130000
  OW        14.140000       13.510000        8.660001
  HW1       14.790001       12.910000        8.200001
  HW2       14.490002       14.440001        8.670000
29
 generated by VMD
  C1        16.520000       11.480000       10.800000
  C2        16.740000       10.460000       11.690001
  C3        14.760000       10.980000       12.040001
  N4        15.240001       11.840000       11.070000
  H5        14.710001       12.530001       10.570001
  H6        17.050001       11.990000       10.010000
  H7        17.660000        9.920000       11.800001
  H8        13.760000       11.050000       12.430000
  N9        15.690001       10.150002       12.450000
  P1        16.150002       10.280000        7.310000
  O2        15.840001       11.700001        7.500000
  O3        17.390001        9.860001        6.440001
  H4        17.250000        8.910000        6.500000
  O5        16.639999        9.430000        8.580000
  H6        15.810001        9.260000        9.050000
  O7        14.940001        9.410001        6.830000
  H8        14.170000        9.710001        7.340000
  OW        14.530001        8.280001       10.520000
  HW1       14.460001        7.290000       10.450001
  HW2       14.830000        8.530001       11.450001
  OW        12.250000       12.440001        9.770000
  HW1       13.040000       12.940001        9.420000
  HW2       11.620001       13.080001       10.220001
  OW        13.260001       10.080000        8.770000
  HW1       12.780001       10.920000        9.040001
  HW2       13.240002        9.430000        9.530001
  OW        14.420000       13.510000        9.000000
  HW1       14.900002       12.810000        8.480000
  HW2       14.560001       14.400001        8.560000
