28
 generated by VMD
  C1        14.890001        8.490001       15.070001
  C2        16.250002        8.850000       15.220001
  C3        17.160000        7.850000       15.050001
  C4        16.730001        6.570000       14.770001
  C5        15.370001        6.320000       14.700001
  N6        14.440001        7.260000       14.870001
  H7        18.230001        7.980000       14.980000
  H8        14.120001        9.240000       15.210000
  H9        16.510000        9.880000       15.430001
  H10       17.450001        5.790000       14.530001
  H11       15.010000        5.310000       14.540001
  P1        10.970000        8.770000       16.130001
  O2        11.240001        9.690001       15.010000
  O3        11.580001        9.230000       17.460001
  H4        11.100000       10.060000       17.550001
  O5         9.560000        8.420001       16.460001
  H6         9.390000        7.870001       15.690001
  O7        11.540001        7.320001       15.840001
  H8        12.490001        7.460001       15.900001
  OW         9.970000       11.490001       17.810001
  HW1        9.350000       12.060001       17.270000
  HW2        9.570000       11.330000       18.710001
  OW        10.030001        9.840000       12.550001
  HW1       10.600000        9.850000       13.380001
  HW2       10.420000       10.460000       11.870001
  OW         9.000000        7.490000       13.980001
  HW1        9.350000        8.080000       13.250000
  HW2        8.640000        6.640000       13.580000
28
 generated by VMD
  C1        14.990001        7.030000       16.160000
  C2        16.220001        7.390000       16.720001
  C3        17.050001        8.340000       16.049999
  C4        16.480001        8.970000       14.920001
  C5        15.220001        8.510000       14.440001
  N6        14.460001        7.580000       15.060000
  H7        18.050001        8.520000       16.430000
  H8        14.370001        6.280000       16.639999
  H9        16.620001        6.760001       17.510000
  H10       17.050001        9.720000       14.380001
  H11       14.800000        8.910000       13.520001
  P1        11.250000        8.760000       15.640001
  O2        11.230000        9.010000       14.210001
  O3        11.990000        9.770000       16.530001
  H4        11.440001       10.570001       16.580002
  O5         9.890000        8.710001       16.340000
  H6         9.530001        8.030001       15.750000
  O7        11.840000        7.380000       16.000000
  H8        12.690001        7.490000       15.570001
  OW        10.310000       11.870001       16.760002
  HW1       10.010000       12.630000       17.340000
  HW2        9.720000       11.810001       15.960001
  OW         9.300001        7.940001       12.490001
  HW1       10.070001        8.350000       12.980001
  HW2        9.400001        8.100000       11.510000
  OW         8.310000        6.990001       14.870001
  HW1        8.420001        7.210000       13.900002
  HW2        7.580000        6.320000       14.970001
28
 generated by VMD
  C1        14.780001        7.400000       15.540000
  C2        15.560001        7.720000       14.450001
  C3        16.070002        9.010000       14.330001
  C4        15.780001        9.920000       15.310000
  C5        15.010000        9.520000       16.410000
  N6        14.450001        8.290001       16.480001
  H7        16.680000        9.320001       13.480000
  H8        14.280001        6.450000       15.670000
  H9        15.700001        6.950001       13.700001
  H10       16.080000       10.950001       15.240001
  H11       14.830000       10.250001       17.200001
  P1        11.120001        8.960000       15.550001
  O2        11.410000        7.730000       14.810000
  O3        11.870001       10.180000       14.910001
  H4        11.480000       10.210000       14.030001
  O5         9.690001        9.480000       15.780001
  H6         9.240000        8.840000       16.340000
  O7        11.670000        8.870000       16.980001
  H8        12.620001        8.720000       16.900002
  OW        10.960001        9.810000       12.480000
  HW1       10.770000       10.590000       11.890000
  HW2       11.510000        9.140000       11.980000
  OW        10.500001        5.290000       15.660001
  HW1       10.910001        6.090000       15.240001
  HW2       10.540000        4.510000       15.030001
  OW         8.900001        7.150001       17.290001
  HW1        9.140000        6.360001       16.720001
  HW2        9.090000        6.940000       18.250000
28
 generated by VMD
  C1        14.590001        7.710000       15.860001
  C2        15.130001        7.800000       14.610001
  C3        15.760001        8.970000       14.220000
  C4        15.820000        9.990001       15.150002
  C5        15.260000        9.800000       16.400002
  N6        14.650001        8.660001       16.760002
  H7        16.130001        9.110001       13.210001
  H8        14.080001        6.810000       16.180000
  H9        15.080000        6.940000       13.950001
  H10       16.300001       10.950001       14.990001
  H11       15.460001       10.610001       17.090000
  P1        11.340000        8.870000       15.460001
  O2        11.600000        7.460001       15.150002
  O3        11.940001        9.960001       14.480000
  H4        11.480000        9.830000       13.640001
  O5         9.850000        9.340000       15.590000
  H6         9.510000        8.640000       16.170002
  O7        11.890000        9.240000       16.910002
  H8        12.810000        8.950001       16.830002
  OW        10.430001        9.270000       12.190001
  HW1        9.440001        9.170000       12.080001
  HW2       10.860001        9.360001       11.290001
  OW        10.300001        5.300000       16.070002
  HW1       10.710001        6.000000       15.490000
  HW2       10.830001        4.460000       16.000000
  OW         9.010000        7.320001       17.270000
  HW1        9.450001        6.510000       16.890001
  HW2        8.590000        7.090001       18.150002
28
 generated by VMD
  C1        15.000001        9.660000       14.740001
  C2        16.240002        9.480000       14.190001
  C3        17.240002        8.790001       14.920001
  C4        16.830002        8.190001       16.100002
  C5        15.500001        8.340000       16.480001
  N6        14.610001        9.060000       15.850000
  H7        18.230001        8.560000       14.560001
  H8        14.230001       10.210000       14.210001
  H9        16.580002        9.980000       13.290001
  H10       17.500002        7.600000       16.710001
  H11       15.160000        7.920001       17.430000
  P1        11.060000        8.780001       15.390000
  O2        11.280001        7.360001       15.300001
  O3        11.270000        9.480000       14.040001
  H4        10.500001        9.240000       13.510000
  O5         9.600000        9.310000       15.650001
  H6         9.280001        8.850000       16.440001
  O7        11.780001        9.650001       16.460001
  H8        12.690001        9.350000       16.380001
  OW         9.250001        8.850000       12.410001
  HW1        8.310000        9.160001       12.280001
  HW2        9.410001        8.020000       11.870001
  OW        10.290001        5.440001       16.790001
  HW1       10.700001        5.950000       16.040001
  HW2       10.770000        4.570000       16.920000
  OW         8.890000        7.540000       17.580002
  HW1        9.290000        6.660000       17.320002
  HW2        8.690001        7.540000       18.560001
28
 generated by VMD
  C1        15.570001        9.840000       16.160000
  C2        16.820000        9.250001       16.120001
  C3        17.210001        8.680000       14.930000
  C4        16.290001        8.610001       13.850001
  C5        15.020000        9.170000       14.020000
  N6        14.720001        9.800000       15.120001
  H7        18.220001        8.300000       14.780001
  H8        15.350000       10.370001       17.070002
  H9        17.520000        9.310000       16.950001
  H10       16.530001        8.050001       12.950001
  H11       14.240000        9.120001       13.260001
  P1        11.120001        8.450001       15.410002
  O2        11.260000        7.310000       16.290001
  O3        11.400002        8.120001       13.950001
  H4        10.540000        7.850000       13.610001
  O5         9.710001        8.970000       15.150002
  H6         9.440001        8.930000       16.080000
  O7        11.870001        9.770000       15.850000
  H8        12.710000        9.630001       15.400001
  OW         9.170000        7.720000       12.500000
  HW1        8.510000        7.090001       12.080001
  HW2        8.690001        8.520000       12.860001
  OW        10.090000        6.290000       18.420002
  HW1       10.680000        6.510000       17.640001
  HW2       10.640000        5.950000       19.180000
  OW         8.670000        8.490001       17.550001
  HW1        9.010000        7.590001       17.820000
  HW2        7.860000        8.720000       18.090002
28
 generated by VMD
  C1        15.150002        8.940001       16.720001
  C2        15.520000        9.870001       15.760001
  C3        15.640001        9.430000       14.410001
  C4        15.300001        8.080000       14.150001
  C5        14.950001        7.220001       15.190001
  N6        14.920001        7.650001       16.450001
  H7        15.890001       10.140000       13.620001
  H8        15.170001        9.270000       17.760002
  H9        15.650001       10.900001       16.100002
  H10       15.370001        7.690001       13.140000
  H11       14.690001        6.200000       14.940001
  P1        11.480000        8.450001       15.860001
  O2        11.760000        8.200001       14.460001
  O3        12.130001        9.710001       16.590000
  H4        11.550001       10.430001       16.320002
  O5         9.980000        8.580000       16.310001
  H6         9.570000        7.780001       15.970001
  O7        11.910001        7.160000       16.680000
  H8        12.870001        7.210000       16.550001
  OW        10.360001       11.590000       15.790001
  HW1        9.470000       11.160001       15.880001
  HW2       10.240001       12.580000       15.660001
  OW         9.570000        7.930000       12.620001
  HW1       10.420000        7.880001       13.140000
  HW2        9.750000        8.260000       11.700001
  OW         8.960000        6.460000       14.850000
  HW1        8.950001        6.770000       13.900002
  HW2        8.310000        5.700001       14.960001
28
 generated by VMD
  C1        15.310000        7.180000       15.760001
  C2        16.280001        7.430000       14.810000
  C3        16.420000        8.780001       14.340000
  C4        15.440001        9.730000       14.700001
  C5        14.470000        9.300001       15.600000
  N6        14.400001        8.100000       16.200001
  H7        17.250000        9.060000       13.710001
  H8        15.250001        6.140000       16.060001
  H9        16.960001        6.640000       14.520000
  H10       15.360001       10.720000       14.260001
  H11       13.680000        9.990001       15.890001
  P1        10.960001        7.940001       15.370001
  O2        11.320001        8.250000       13.980001
  O3        11.190001        9.180000       16.340000
  H4        10.700001        9.880000       15.890001
  O5         9.520000        7.540000       15.830001
  H6         9.580001        7.320001       16.770000
  O7        11.760000        6.750000       16.049999
  H8        12.610001        7.200000       16.100002
  OW        10.000000       11.150000       15.040001
  HW1        9.150001       11.640000       14.850000
  HW2       10.550001       11.100000       14.210001
  OW        11.430000       10.690001       12.910000
  HW1       11.470001        9.720000       13.170000
  HW2       12.090001       10.870000       12.180000
  OW         9.500000        7.310000       18.710001
  HW1        9.300001        7.310000       19.690001
  HW2       10.380001        7.760000       18.550001
28
 generated by VMD
  C1        14.200001        7.710000       14.230001
  C2        15.230001        8.510000       13.700001
  C3        16.240002        8.850000       14.620000
  C4        16.230000        8.300000       15.930000
  C5        15.200001        7.430000       16.330002
  N6        14.190001        7.090001       15.460001
  H7        17.060001        9.490001       14.310001
  H8        13.350000        7.490000       13.580000
  H9        15.100001        8.940001       12.710000
  H10       17.050001        8.550000       16.590000
  H11       15.230001        7.060000       17.350002
  P1        10.950001        8.270000       15.630001
  O2        11.090001        8.360001       14.160000
  O3        11.680001        9.340000       16.450001
  H4        11.370001       10.170001       16.080000
  O5         9.490001        8.250000       16.270000
  H6         9.490001        7.700000       17.060001
  O7        11.470001        6.870000       16.090000
  H8        12.430000        6.920000       15.980000
  OW        10.820000       11.550001       15.050001
  HW1       11.320001       12.420001       15.030001
  HW2       10.760001       11.180000       14.130001
  OW        11.030001       10.590000       12.520000
  HW1       10.870000        9.720000       12.990000
  HW2       11.480000       10.410000       11.640000
  OW         9.860001        7.400000       18.770000
  HW1       10.110001        6.490001       19.130001
  HW2       10.330000        8.100000       19.300001
28
 generated by VMD
  C1        14.510001        7.610001       14.400001
  C2        15.640001        8.210000       13.870001
  C3        16.420000        9.040001       14.640001
  C4        16.160000        8.960000       16.010000
  C5        15.000001        8.340000       16.480001
  N6        14.170000        7.680000       15.690001
  H7        17.320002        9.520000       14.290000
  H8        13.800001        7.110000       13.750001
  H9        15.810001        8.130000       12.800001
  H10       16.730001        9.440001       16.800001
  H11       14.880000        8.270000       17.550001
  P1        10.870000        8.130000       15.660001
  O2        11.080000        8.360001       14.240000
  O3        11.410000        9.310000       16.440001
  H4        11.290001       10.090000       15.890001
  O5         9.370001        8.190001       16.160000
  H6         9.460000        7.980000       17.100000
  O7        11.490001        6.810000       16.300001
  H8        12.450000        6.940000       16.270000
  OW        10.610001       11.250000       14.550000
  HW1        9.720000       11.650001       14.320001
  HW2       11.020000       10.860001       13.730000
  OW        11.710000       10.160000       12.300000
  HW1       11.390000        9.270000       12.640000
  HW2       12.470001       10.020000       11.670000
  OW         9.490001        7.160000       18.680000
  HW1        9.870001        6.290000       18.380001
  HW2        9.160001        7.080000       19.620001
28
 generated by VMD
  C1        15.280001        7.190001       14.490002
  C2        16.590000        7.620000       14.350000
  C3        16.940001        8.870000       14.890001
  C4        15.910001        9.700001       15.360001
  C5        14.610001        9.170000       15.500001
  N6        14.300001        7.950000       15.010000
  H7        17.960001        9.250001       14.870001
  H8        15.020000        6.210001       14.110001
  H9        17.370001        6.980000       13.960000
  H10       16.100002       10.690001       15.750000
  H11       13.790001        9.760000       15.880001
  P1        10.700001        7.920001       15.580001
  O2        10.980000        8.170000       14.160000
  O3        10.930000        9.130000       16.550001
  H4        10.490000        9.910001       16.180000
  O5         9.300001        7.450001       16.020000
  H6         9.180000        7.620000       16.960001
  O7        11.530000        6.750000       16.280001
  H8        12.410001        6.940000       15.930000
  OW        10.240001       11.180000       15.080000
  HW1        9.400001       11.210001       14.540001
  HW2       11.010000       10.960001       14.470000
  OW        11.980000       10.450001       13.170000
  HW1       11.610001        9.540001       13.380001
  HW2       12.790001       10.350000       12.600001
  OW         9.170000        7.830000       18.630001
  HW1        9.820001        7.100000       18.830002
  HW2        9.050000        8.410000       19.440001
28
 generated by VMD
  C1        14.830000        7.290000       14.800000
  C2        15.590000        8.280001       14.190001
  C3        15.910001        9.420000       14.940001
  C4        15.540000        9.480000       16.280001
  C5        14.820002        8.390000       16.800001
  N6        14.460001        7.330000       16.100002
  H7        16.490000       10.240001       14.520000
  H8        14.560001        6.450000       14.170000
  H9        15.850000        8.280001       13.140000
  H10       15.720000       10.290001       16.980001
  H11       14.580001        8.360001       17.850000
  P1        11.100000        8.030001       15.460001
  O2        11.860001        8.040000       14.210001
  O3        11.350001        9.330000       16.280001
  H4        10.910001        9.970000       15.700001
  O5         9.550000        8.010000       15.430001
  H6         9.240000        8.010000       16.340000
  O7        11.470001        6.850000       16.360001
  H8        12.420001        6.930000       16.310001
  OW        10.320001       11.050000       14.480000
  HW1        9.510000       11.610001       14.310001
  HW2       10.770000       10.850000       13.610001
  OW        11.520000        9.910001       12.390001
  HW1       11.490001        9.380000       11.550001
  HW2       11.610001        9.290000       13.170000
  OW         9.350000        7.860000       18.320002
  HW1        9.850000        8.370000       19.020000
  HW2        9.750000        6.950001       18.220001
28
 generated by VMD
  C1        15.080000        7.540000       16.730001
  C2        16.440001        7.450001       16.800001
  C3        17.180000        8.070001       15.810001
  C4        16.490000        8.780001       14.830000
  C5        15.110001        8.910000       14.900002
  N6        14.430000        8.270000       15.820000
  H7        18.260000        8.020000       15.930000
  H8        14.420000        7.130001       17.490002
  H9        16.950001        6.870000       17.570002
  H10       17.090000        9.070001       13.980001
  H11       14.490002        9.380000       14.140000
  P1        10.970000        8.180000       15.140000
  O2        11.410000        8.530001       13.810000
  O3        11.000000        9.350000       16.100002
  H4        10.480001       10.070001       15.710001
  O5         9.530001        7.590001       15.450001
  H6         9.650001        7.140000       16.300001
  O7        11.830001        7.100000       15.830001
  H8        12.720001        7.460001       15.720000
  OW         9.490001       11.340000       14.720001
  HW1        8.640000       11.850000       14.720001
  HW2        9.810000       11.220001       13.780001
  OW        10.260000       10.590000       12.380000
  HW1       10.270000       10.780001       11.400002
  HW2       10.660001        9.690001       12.560000
  OW         9.470000        7.140000       18.370001
  HW1       10.180000        7.800000       18.590000
  HW2        8.860001        7.030000       19.150002
28
 generated by VMD
  C1        14.750000        8.070001       16.040001
  C2        15.320001        9.240000       15.600000
  C3        15.460001        9.480000       14.220000
  C4        15.050001        8.500000       13.360001
  C5        14.550000        7.310000       13.890000
  N6        14.430000        7.080000       15.210000
  H7        15.900001       10.350000       13.760000
  H8        14.670001        7.890000       17.100000
  H9        15.540000       10.040001       16.300001
  H10       15.070001        8.590000       12.280001
  H11       14.170000        6.570000       13.190001
  P1        11.060000        8.150001       15.600000
  O2        11.610001        8.800000       14.400001
  O3        11.450001        8.860001       16.920000
  H4        11.190001        9.780001       16.810001
  O5         9.560000        7.970000       15.860001
  H6         9.500000        7.420001       16.650002
  O7        11.480000        6.660000       15.770000
  H8        12.440001        6.630001       15.860001
  OW        11.020000       11.480000       16.210001
  HW1       10.390000       12.260000       16.290001
  HW2       11.420001       11.480000       15.300001
  OW        12.440001       11.180000       13.730000
  HW1       12.790001       11.320001       12.810000
  HW2       12.210001       10.210000       13.860001
  OW         9.090000        6.310000       17.889999
  HW1        9.930000        5.840001       18.160002
  HW2        8.450001        6.330000       18.660000
28
 generated by VMD
  C1        14.170000        7.780001       13.310001
  C2        14.940001        8.900001       12.960000
  C3        15.610001        9.590000       13.980001
  C4        15.540000        9.080001       15.290001
  C5        14.780001        7.900000       15.530001
  N6        14.080001        7.270000       14.560001
  H7        16.100002       10.520000       13.720001
  H8        13.620001        7.290000       12.520000
  H9        14.960001        9.180000       11.920000
  H10       16.049999        9.580001       16.110001
  H11       14.600000        7.410001       16.480001
  P1        10.950001        8.230000       15.530001
  O2        11.320001        9.410001       14.790001
  O3        11.600000        8.280001       16.940001
  H4        11.560000        9.180000       17.280001
  O5         9.470000        7.940001       15.920001
  H6         9.620001        7.160000       16.480001
  O7        11.360001        6.820001       14.990001
  H8        12.300000        6.940000       14.830000
  OW        11.610001       10.720000       17.760002
  HW1       11.730001       11.260000       18.600002
  HW2       11.910001       11.250000       16.970001
  OW        12.470001       11.860001       15.220001
  HW1       12.190001       12.440001       14.450001
  HW2       12.400000       10.900001       14.950001
  OW         9.260000        5.540000       17.270000
  HW1        8.540000        4.960000       17.650002
  HW2       10.020000        4.970000       16.950001
28
 generated by VMD
  C1        14.380001        8.490001       13.490001
  C2        15.640001        9.030001       13.160001
  C3        16.720001        8.620001       13.910000
  C4        16.530001        7.660000       14.890001
  C5        15.260000        7.250000       15.220001
  N6        14.210001        7.570000       14.510001
  H7        17.710001        9.000000       13.680000
  H8        13.480000        8.830000       12.980001
  H9        15.780001        9.810000       12.420001
  H10       17.370001        7.300000       15.460001
  H11       15.070001        6.540000       16.010000
  P1        11.020000        8.440001       15.660001
  O2        11.330000        9.420000       14.630001
  O3        11.650001        8.680000       17.050001
  H4        11.150000        9.480000       17.240002
  O5         9.500000        8.120001       16.090000
  H6         9.480000        7.260000       16.520000
  O7        11.450001        6.970000       15.210000
  H8        12.280001        7.270000       14.810000
  OW        10.180000       10.770000       17.790001
  HW1        9.630001       11.120001       18.540001
  HW2       10.220001       11.460000       17.060001
  OW        10.330000       11.970000       15.130001
  HW1       10.270000       12.590000       14.340000
  HW2       10.610001       11.060000       14.810000
  OW         9.930000        5.660000       17.160000
  HW1       10.030001        4.810000       17.680000
  HW2       10.360001        5.560000       16.260000
28
 generated by VMD
  C1        15.230001        8.900001       14.930000
  C2        15.870001        9.710001       13.940001
  C3        15.950001        9.200000       12.650002
  C4        15.420000        7.910000       12.390001
  C5        14.790001        7.220001       13.390001
  N6        14.660001        7.720000       14.640001
  H7        16.440001        9.730000       11.840000
  H8        15.170001        9.250001       15.950001
  H9        16.320002       10.670000       14.160000
  H10       15.640001        7.490000       11.420001
  H11       14.360001        6.240000       13.180000
  P1        11.200000        8.360001       15.990001
  O2        11.970000        9.600000       16.000000
  O3        10.990001        7.680000       17.380001
  H4        10.559999        8.450001       17.760002
  O5         9.680000        8.360001       15.490000
  H6         9.340000        7.460001       15.480001
  O7        11.810001        7.260000       15.010000
  H8        12.760000        7.410001       15.090000
  OW         9.770000        9.880000       18.430000
  HW1        8.800000       10.040001       18.270000
  HW2       10.290001       10.670000       18.120001
  OW        11.250000       11.900001       17.290001
  HW1       12.020000       12.540001       17.290001
  HW2       11.440001       11.160001       16.639999
  OW         9.180000        5.570001       15.330001
  HW1        8.970000        4.820000       15.960001
  HW2       10.170001        5.580000       15.150002
28
 generated by VMD
  C1        14.720001        7.890000       15.300001
  C2        16.090000        8.230000       15.090000
  C3        16.600000        8.520000       13.830000
  C4        15.660001        8.500000       12.760000
  C5        14.360001        8.190001       13.060001
  N6        13.870001        7.870001       14.280001
  H7        17.680000        8.670000       13.760000
  H8        14.450001        7.710000       16.330002
  H9        16.780001        8.290001       15.930000
  H10       16.020000        8.650001       11.740000
  H11       13.580000        8.330001       12.310000
  P1        10.890001        8.610001       15.610001
  O2        11.270000       10.030001       15.440001
  O3        11.570001        7.950000       16.830002
  H4        11.410000        8.670000       17.450001
  O5         9.420000        8.180000       15.940001
  H6         9.480000        7.230000       16.040001
  O7        11.100000        7.660000       14.390000
  H8        12.050000        7.740001       14.260001
  OW        11.160001        9.850000       18.550001
  HW1       11.280001        9.790000       19.540001
  HW2       10.910001       10.790000       18.310001
  OW        10.650001       12.180000       16.920000
  HW1       10.330000       12.960000       16.390001
  HW2       10.900001       11.430000       16.310001
  OW        10.380001        5.070000       15.690001
  HW1       10.920000        4.220000       15.710001
  HW2       10.530001        5.540000       14.830000
28
 generated by VMD
  C1        14.590001        9.460000       14.270000
  C2        16.010000        9.490001       14.160000
  C3        16.590000        8.460000       13.360001
  C4        15.700001        7.490000       12.760000
  C5        14.330001        7.570000       12.980001
  N6        13.780001        8.520000       13.760000
  H7        17.640001        8.510000       13.090000
  H8        14.160000       10.260000       14.860001
  H9        16.580002       10.320001       14.550000
  H10       16.120001        6.740000       12.100000
  H11       13.570002        6.890000       12.630000
  P1        10.860001        8.580000       15.860001
  O2        11.110001       10.000000       15.860001
  O3        11.800001        7.700000       16.770000
  H4        11.760000        8.170000       17.610001
  O5         9.480000        7.970000       16.240002
  H6         9.650001        7.060000       15.980000
  O7        11.050000        7.900000       14.490002
  H8        11.950001        8.150001       14.260001
  OW        11.680001        9.210001       19.000000
  HW1       11.310000        9.160001       19.930002
  HW2       11.570001       10.130000       18.640001
  OW        11.060000       11.570001       17.960001
  HW1       10.530001       12.430000       17.950001
  HW2       10.940001       11.090001       17.090000
  OW         9.680000        5.280000       15.300001
  HW1       10.060000        5.600000       14.430000
  HW2       10.210000        4.500000       15.630001
28
 generated by VMD
  C1        15.660001        6.860001       15.400001
  C2        16.990002        7.240000       15.030001
  C3        17.050001        8.410000       14.240000
  C4        15.850000        9.060000       13.760000
  C5        14.630001        8.520000       14.200001
  N6        14.520000        7.460001       15.010000
  H7        18.000000        8.910000       14.080001
  H8        15.600000        6.020000       16.090000
  H9        17.860001        6.780000       15.470000
  H10       15.870001       10.000000       13.220000
  H11       13.710001        9.080001       14.030001
  P1        10.940001        8.210000       15.600000
  O2        11.030001        8.720000       14.230001
  O3        11.340000        9.280001       16.650002
  H4        10.730000       10.000000       16.460001
  O5         9.580001        7.790000       16.160000
  H6         9.680000        7.790000       17.120001
  O7        11.810001        6.970000       15.920001
  H8        12.670001        7.170000       15.540000
  OW         9.680000       11.160001       15.840001
  HW1        8.780001       11.540001       16.040001
  HW2        9.800000       11.090001       14.850000
  OW         9.900001       10.940001       13.180000
  HW1       10.480001       11.350001       12.470001
  HW2       10.180000       10.000000       13.340001
  OW         9.700001        7.800000       19.250000
  HW1       10.490000        8.100000       19.780001
  HW2        9.140000        7.190001       19.810001
28
 generated by VMD
  C1        14.240000        7.170000       14.390000
  C2        14.620000        8.380001       13.820001
  C3        15.290001        9.270000       14.600000
  C4        15.540000        8.980000       15.950001
  C5        15.120001        7.790000       16.430000
  N6        14.420000        6.910000       15.660001
  H7        15.670000       10.220001       14.230001
  H8        13.750001        6.400001       13.800001
  H9        14.450001        8.520000       12.760000
  H10       16.090000        9.720000       16.530001
  H11       15.380001        7.600000       17.470001
  P1        11.140001        8.150001       15.610001
  O2        11.220001        7.990000       14.160000
  O3        12.110001        9.260000       16.160000
  H4        11.860001       10.070001       15.700001
  O5         9.820001        8.500000       16.230000
  H6        10.010000        8.480000       17.170002
  O7        11.590000        6.890000       16.450001
  H8        12.530001        6.860001       16.240002
  OW        11.360001       11.320001       14.430000
  HW1       11.740000       12.210001       14.180001
  HW2       10.830001       10.950001       13.670001
  OW        10.170001        9.860001       12.450000
  HW1        9.250001        9.620001       12.120000
  HW2       10.559999        9.090000       12.950001
  OW        10.490000        8.270000       19.000000
  HW1       11.390000        7.840000       18.990000
  HW2       10.110001        8.250000       19.930002
