32
 generated by VMD
 C         4.787000        8.883000        8.691000
 C         5.303000        9.458000        7.535000
 C         6.164000       10.548000        9.309000
 N         5.336000        9.569000        9.776000
 H         4.092000        8.073000        8.805000
 H         5.121000        9.220000        6.504000
 H         6.746000       11.261000        9.909000
 C         4.954000        9.412000       11.167000
 H         4.253000       10.237000       11.460000
 H         4.461000        8.445000       11.347000
 H         5.838000        9.500000       11.840000
 N         6.167000       10.478000        7.935000
 C         6.755000       11.509000        7.080000
 H         7.379000       11.023000        6.297000
 H         7.439000       12.146000        7.709000
 C         5.692000       12.423000        6.431000
 H         6.215000       13.349000        6.100000
 H         5.289000       11.949000        5.518000
 C         4.537000       12.818000        7.352000
 H         3.718000       12.078000        7.307000
 H         4.096000       13.781000        7.032000
 C         4.998000       12.976000        8.807000
 O         5.993000       13.678000        9.034000
 O         4.383000       12.287000        9.653000
 P         6.330000       12.862000       12.471000
 O         7.104000       11.634000       12.256000
 O         4.764000       12.692000       12.269000
 H         4.561000       12.599000       11.221000
 O         6.461000       13.350000       13.983000
 H         5.905000       14.217000       14.070000
 O         6.765000       14.134000       11.633000
 H         6.473000       13.992000       10.618000
