17
 generated by VMD
  C1         6.440001       15.700001       12.510000
  C2         7.280001       14.730000       12.050000
  C3         6.510000       14.140000       14.060000
  N4         5.930000       15.340000       13.790001
  H5         5.260000       15.860001       14.350000
  H6         6.120000       16.639999       12.080001
  H7         7.780001       14.710001       11.100000
  H8         6.350000       13.580000       14.980000
  N9         7.310000       13.780001       13.020000
  P1         3.460000       13.070001       11.510000
  O2         3.210000       14.200001       12.390001
  O3         4.850000       13.090000       10.860001
  H4         5.340000       13.140000       11.680001
  O5         3.450000       11.610001       12.130001
  H6         2.500000       11.540001       12.230000
  O7         2.380000       12.810000       10.420000
  H8         2.320000       13.670001        9.980000
17
 generated by VMD
  C1         6.580000       15.880001       13.400001
  C2         6.710000       15.180001       12.220000
  C3         6.340000       13.890000       13.910000
  N4         6.260000       15.100001       14.420000
  H5         6.190000       15.360001       15.390000
  H6         6.720000       16.940001       13.500000
  H7         6.980000       15.420000       11.200000
  H8         6.110000       13.060001       14.560001
  N9         6.600000       13.870001       12.630000
  P1         3.600000       13.040000       11.220001
  O2         3.930000       13.960000       10.140000
  O3         4.810000       12.150001       11.700001
  H4         5.470000       12.800001       11.980000
  O5         3.040000       13.600000       12.550001
  H6         2.200000       14.030001       12.400000
  O7         2.560000       11.900001       10.900001
  H8         2.900000       11.520000       10.090000
17
 generated by VMD
  C1         6.490001       15.980000       12.690001
  C2         6.740000       14.830000       12.010001
  C3         6.300001       14.210001       14.050001
  N4         6.270000       15.570001       13.950001
  H5         6.090000       16.100002       14.790001
  H6         6.450000       17.030001       12.440001
  H7         7.030000       14.740001       10.970000
  H8         6.090000       13.630000       14.930000
  N9         6.650000       13.720001       12.860001
  P1         3.600000       13.020000       11.450001
  O2         3.540000       14.440001       11.180000
  O3         4.940000       12.420001       11.050000
  H4         5.630000       12.800001       11.600000
  O5         3.330000       12.360001       12.860001
  H6         3.300000       11.440001       12.570001
  O7         2.520000       12.170000       10.700001
  H8         2.670000       12.570001        9.830000
17
 generated by VMD
  C1         7.150001       15.680000       12.490001
  C2         7.490000       14.380001       12.320002
  C3         5.760000       14.420000       13.680000
  N4         6.090000       15.700001       13.390001
  H5         5.680000       16.570000       13.700001
  H6         7.480000       16.620001       12.090001
  H7         8.350000       13.950001       11.840000
  H8         4.940000       14.060000       14.280001
  N9         6.650000       13.620001       13.080001
  P1         3.420000       13.070001       11.570001
  O2         3.030000       14.430000       11.930000
  O3         4.860000       13.030001       10.890001
  H4         5.450000       13.190001       11.640000
  O5         3.670000       12.060001       12.700001
  H6         3.700000       11.200000       12.270001
  O7         2.570000       12.140001       10.610001
  H8         2.500000       12.650002        9.790000
17
 generated by VMD
  C1         7.360001       15.920001       13.050001
  C2         6.920000       14.670001       12.770000
  C3         5.460000       15.550001       14.060000
  N4         6.400001       16.500000       13.890000
  H5         6.450000       17.440001       14.250001
  H6         8.290001       16.400002       12.810000
  H7         7.360001       13.900002       12.150001
  H8         4.550000       15.690001       14.630001
  N9         5.700001       14.450001       13.370000
  P1         3.740000       12.390001       11.280001
  O2         4.490000       11.190001       11.540001
  O3         3.370000       13.280001       12.470001
  H4         4.240000       13.520001       12.810000
  O5         4.350000       13.470001       10.340000
  H6         3.520000       13.900002       10.120001
  O7         2.470000       12.110001       10.480001
  H8         2.050000       11.420001       11.010000
17
 generated by VMD
  C1         6.820001       15.810001       12.150001
  C2         5.530000       16.110001       12.440001
  C3         5.950000       14.580001       13.850001
  N4         7.020000       14.740001       13.000001
  H5         7.860000       14.190001       12.980001
  H6         7.580000       16.170002       11.470001
  H7         5.010000       16.940001       11.980000
  H8         5.920000       13.860001       14.650001
  N9         4.980000       15.360001       13.460001
  P1         3.880000       12.510000       11.700001
  O2         3.990000       11.990000       13.030001
  O3         3.040000       13.830000       11.520000
  H4         3.430000       14.490002       12.110001
  O5         5.140000       13.020000       10.940001
  H6         4.740000       13.270000       10.100000
  O7         3.360000       11.590000       10.540000
  H8         2.600000       11.110001       10.910001
17
 generated by VMD
  C1         6.660000       16.770000       13.410001
  C2         5.630000       16.420000       12.600001
  C3         6.780000       14.620000       12.950001
  N4         7.270000       15.590000       13.750001
  H5         8.020000       15.520000       14.420000
  H6         6.910000       17.700001       13.900002
  H7         4.790000       16.970001       12.220000
  H8         7.080000       13.590001       13.010001
  N9         5.700001       15.050001       12.300000
  P1         3.720000       12.290001       11.600000
  O2         4.330000       11.790000       12.830001
  O3         3.270000       13.750001       11.710000
  H4         4.150000       14.130001       11.760000
  O5         4.370000       12.250000       10.210000
  H6         3.620000       12.510000        9.670001
  O7         2.460000       11.510000       11.250000
  H8         2.040000       11.510000       12.120000
17
 generated by VMD
  C1         6.540000       16.700001       13.430000
  C2         5.710001       15.660001       13.870001
  C3         6.880000       14.880000       12.230000
  N4         7.380000       16.080000       12.500000
  H5         8.110001       16.520000       11.960001
  H6         6.610000       17.690001       13.840000
  H7         4.930000       15.660001       14.610001
  H8         7.380000       14.230001       11.520000
  N9         5.950000       14.570000       13.090000
  P1         3.560000       12.400000       11.610001
  O2         3.130000       12.190001       13.010001
  O3         3.750000       13.850001       11.200000
  H4         4.460000       14.130001       11.790000
  O5         4.900000       11.760000       11.160001
  H6         4.840000       10.830001       11.410000
  O7         2.500000       11.750001       10.640000
  H8         1.730000       12.130001       11.090001
17
 generated by VMD
  C1         7.480000       15.380001       13.500000
  C2         7.500000       14.540001       12.430000
  C3         5.690000       15.630001       12.260000
  N4         6.220000       15.980000       13.460001
  H5         5.760000       16.590000       14.110001
  H6         8.190001       15.520000       14.290000
  H7         8.190001       13.760000       12.140001
  H8         4.710000       15.890001       11.900001
  N9         6.390000       14.720001       11.660000
  P1         3.430000       12.740001       11.740000
  O2         2.730000       14.000001       11.550001
  O3         4.760000       12.590000       10.890001
  H4         5.370000       13.250000       11.240001
  O5         3.990000       12.280001       13.160001
  H6         4.040000       11.330000       13.060001
  O7         2.520000       11.440001       11.500001
  H8         2.200000       11.530000       10.600000
17
 generated by VMD
  C1         6.500000       15.110001       11.610001
  C2         7.520000       14.450001       12.290001
  C3         6.180000       15.170001       13.790001
  N4         5.700001       15.640001       12.600001
  H5         4.830000       16.130001       12.530001
  H6         6.350000       15.190001       10.550001
  H7         8.320000       13.880000       11.850000
  H8         5.690000       15.410002       14.720001
  N9         7.220001       14.460001       13.660001
  P1         3.490000       12.940001       11.670000
  O2         3.240000       14.380001       11.570001
  O3         4.990000       12.560000       11.820001
  H4         5.260000       13.030001       12.620001
  O5         2.960000       12.190001       12.840000
  H6         2.550000       11.490001       12.320002
  O7         2.880000       11.990000       10.559999
  H8         3.520000       12.120000        9.840000
17
 generated by VMD
  C1         7.130001       16.400002       12.440001
  C2         6.250000       15.840001       11.590000
  C3         6.950001       14.310001       12.950001
  N4         7.570000       15.460001       13.360001
  H5         8.230000       15.570001       14.100000
  H6         7.480000       17.420002       12.440001
  H7         5.660000       16.180000       10.750000
  H8         7.020000       13.380001       13.500000
  N9         6.150000       14.500000       11.940001
  P1         3.350000       12.680000       11.830001
  O2         2.840000       13.840000       11.100000
  O3         4.810000       12.160001       11.570001
  H4         5.300000       12.980001       11.730001
  O5         3.400000       12.790001       13.370000
  H6         2.480000       12.620001       13.610001
  O7         2.360000       11.450001       11.660000
  H8         2.500000       11.410000       10.710001
17
 generated by VMD
  C1         6.210001       16.060001       12.700001
  C2         6.300001       15.120001       13.690001
  C3         6.960001       14.190001       11.850000
  N4         6.500000       15.410002       11.550001
  H5         6.340000       15.850000       10.660001
  H6         5.890000       17.080000       12.820001
  H7         6.140000       15.200001       14.760000
  H8         7.360001       13.490001       11.130000
  N9         6.810000       13.950001       13.140000
  P1         3.590000       12.920000       11.740000
  O2         4.180000       13.540001       10.559999
  O3         4.610000       12.020000       12.500000
  H4         5.260000       12.720001       12.630000
  O5         3.000000       13.740001       12.930001
  H6         2.590000       13.060001       13.480000
  O7         2.330000       11.930000       11.500001
  H8         2.700000       11.150000       11.070000
17
 generated by VMD
  C1         7.630000       14.660001       12.640000
  C2         6.790000       14.690001       13.690001
  C3         5.740000       15.630001       12.100000
  N4         6.990001       15.290001       11.640000
  H5         7.300000       15.350000       10.690001
  H6         8.600000       14.200001       12.570001
  H7         6.990001       14.460001       14.720001
  H8         5.060000       16.190001       11.470001
  N9         5.560000       15.310000       13.350000
  P1         3.620000       12.750001       11.680001
  O2         4.560000       13.180000       10.650001
  O3         4.220000       12.760000       13.110001
  H4         4.540000       13.670001       13.220000
  O5         2.260000       13.570002       11.910001
  H6         1.720000       13.160001       11.220001
  O7         3.040000       11.300000       11.580001
  H8         3.860000       10.910001       11.910001
17
 generated by VMD
  C1         7.720000       14.910001       12.890000
  C2         6.740000       14.750000       13.750001
  C3         5.820000       15.610001       12.030001
  N4         7.140000       15.470000       11.740000
  H5         7.570000       15.730000       10.870000
  H6         8.770000       14.730000       13.060001
  H7         6.830000       14.270000       14.710001
  H8         5.160000       16.010000       11.270000
  N9         5.510000       15.110001       13.190001
  P1         3.570000       12.710000       11.670000
  O2         4.450000       13.140000       10.580001
  O3         4.340000       12.490001       13.010001
  H4         4.700000       13.370000       13.150001
  O5         2.420000       13.680000       12.110001
  H6         1.730000       13.080001       12.440001
  O7         2.780000       11.380000       11.390000
  H8         3.510000       10.900001       10.970000
17
 generated by VMD
  C1         6.390000       16.260000       12.650002
  C2         6.130000       15.350000       13.660001
  C3         6.990001       14.200001       12.060001
  N4         6.880000       15.440001       11.620001
  H5         7.160000       15.770000       10.710001
  H6         6.250000       17.320002       12.510000
  H7         5.710001       15.510001       14.640001
  H8         7.250000       13.340001       11.450001
  N9         6.550000       14.040001       13.290001
  P1         3.590000       12.830001       11.720000
  O2         4.490000       13.200001       10.650001
  O3         4.300000       12.090001       12.880001
  H4         5.070000       12.630000       13.090000
  O5         2.640000       13.830000       12.500000
  H6         2.000000       13.180000       12.810000
  O7         2.530000       11.830001       11.250000
  H8         3.010000       11.280001       10.620001
17
 generated by VMD
  C1         6.270000       16.230000       13.120001
  C2         5.880000       15.140000       13.800001
  C3         7.100000       14.410001       12.100000
  N4         7.030000       15.790001       12.070000
  H5         7.460001       16.400002       11.390000
  H6         6.070001       17.260000       13.370000
  H7         5.230000       15.140000       14.660001
  H8         7.650001       13.780001       11.410000
  N9         6.400001       13.990001       13.160001
  P1         3.620000       12.740001       11.530000
  O2         4.270000       12.850000       10.270000
  O3         4.390000       12.020000       12.650002
  H4         5.090000       12.670001       12.810000
  O5         3.150000       13.950001       12.320002
  H6         2.650000       13.530001       13.030001
  O7         2.260000       11.990000       11.540001
  H8         2.490000       11.280001       10.930000
17
 generated by VMD
  C1         6.620001       16.280001       13.200001
  C2         5.850000       15.240001       13.560000
  C3         7.220001       14.480000       12.100000
  N4         7.470000       15.820000       12.280001
  H5         8.120001       16.430000       11.820001
  H6         6.500000       17.310001       13.500000
  H7         5.090000       15.170001       14.330001
  H8         7.810000       13.980001       11.340000
  N9         6.240000       14.060000       12.860001
  P1         3.520000       12.710000       11.570001
  O2         4.470000       13.040000       10.550001
  O3         4.190001       12.150001       12.850000
  H4         4.970000       12.700001       12.940001
  O5         2.600000       13.780001       12.240001
  H6         1.990000       13.180000       12.690001
  O7         2.400000       11.650001       11.250000
  H8         2.930000       10.940001       10.870000
17
 generated by VMD
  C1         7.530000       15.670000       13.530001
  C2         6.540000       14.990001       14.140000
  C3         5.560000       15.900001       12.460001
  N4         6.950001       16.210001       12.400000
  H5         7.450001       16.670000       11.660000
  H6         8.570001       15.810001       13.800001
  H7         6.600000       14.440001       15.060000
  H8         4.870000       16.150002       11.670000
  N9         5.340000       15.140000       13.490001
  P1         3.750000       12.330000       11.410000
  O2         4.980000       11.600000       11.260000
  O3         3.490000       12.930001       12.820001
  H4         4.160000       13.590001       13.040000
  O5         3.510000       13.610001       10.520000
  H6         3.700000       13.270000        9.640000
  O7         2.500000       11.460000       11.060000
  H8         2.470000       10.760001       11.720000
17
 generated by VMD
  C1         6.920000       14.740001       13.280001
  C2         5.820000       15.060000       13.990001
  C3         5.440001       15.890001       12.090001
  N4         6.700000       15.340000       12.060001
  H5         7.300000       15.230001       11.250000
  H6         7.750000       14.060000       13.400001
  H7         5.700001       14.740001       15.010000
  H8         5.040000       16.440001       11.250000
  N9         4.940000       15.790001       13.280001
  P1         4.060000       12.520000       11.620001
  O2         5.340000       11.920000       12.000000
  O3         3.350000       13.420000       12.670001
  H4         3.950000       14.150001       12.880001
  O5         3.910000       13.420000       10.330000
  H6         3.820000       12.760000        9.640000
  O7         3.010000       11.430000       11.370001
  H8         2.850000       11.200000       12.300000
17
 generated by VMD
  C1         7.480000       16.010000       13.350000
  C2         6.740000       14.830000       13.290001
  C3         5.500000       16.300001       12.440001
  N4         6.620001       16.960001       12.810000
  H5         6.800000       17.930000       12.630000
  H6         8.480000       16.310001       13.620001
  H7         7.020000       13.830000       13.560000
  H8         4.660000       16.840002       12.030001
  N9         5.550000       15.040001       12.730000
  P1         3.760000       12.150001       11.650001
  O2         4.790000       11.360001       12.300000
  O3         3.450000       13.450001       12.300000
  H4         4.260000       13.970001       12.240001
  O5         3.900000       12.570001       10.200001
  H6         3.340000       11.930000        9.750000
  O7         2.420000       11.470001       11.510000
  H8         2.130000       11.510000       12.430000
17
 generated by VMD
  C1         7.350000       16.010000       13.440001
  C2         6.500000       15.150002       14.060000
  C3         5.400000       15.880001       12.420001
  N4         6.640000       16.450001       12.350000
  H5         6.870000       17.180000       11.710000
  H6         8.370000       16.270000       13.640001
  H7         6.630001       14.570000       14.960001
  H8         4.670000       16.049999       11.650001
  N9         5.260000       15.110001       13.450001
  P1         3.860000       12.200001       11.430000
  O2         5.060000       11.410000       11.320001
  O3         3.730000       12.870001       12.860001
  H4         4.320000       13.630000       12.860001
  O5         3.690000       13.440001       10.470000
  H6         3.260000       13.010001        9.720000
  O7         2.480000       11.540001       11.190001
  H8         2.430000       10.910001       11.920000
