23
 generated by VMD
 C         8.948643       10.625716        5.068885
 C        10.274057       10.121994        4.847117
 C        11.205547       10.877091        4.128094
 C        10.796322       12.109160        3.649407
 C         9.490488       12.597268        3.871425
 C         8.548367       11.870921        4.579923
 H        12.210234       10.493572        3.961523
 H        11.493525       12.727313        3.084455
 H         9.224698       13.575539        3.469918
 H         7.545971       12.249480        4.748516
 H         7.344952        9.689185        6.127161
 C         9.201390        8.594028        6.011794
 H         8.947956        7.692127        6.564643
 N         8.285003        9.639924        5.809373
 N        10.380071        8.862794        5.448424
 P        11.926382        5.960672        6.987054
 O        10.488782        5.761445        7.098979
 O        12.824790        4.663145        6.709954
 H        12.829367        4.487457        5.700903
 O        12.472143        6.941693        5.865578
 H        11.756562        7.695621        5.667189
 O        12.543889        6.469666        8.362004
 H        13.560871        6.564204        8.247688
