23
 generated by VMD
  C1         8.660001        7.470000       10.010000
  C2         7.430000        8.040000       10.070001
  C3         8.790001        9.630001       10.370001
  N4         9.540001        8.550000       10.110001
  H5        10.540000        8.550000       10.090000
  H6         8.920000        6.440001        9.860001
  H7         6.440001        7.650001        9.920000
  H8         9.280001       10.580001       10.500001
  N9         7.530000        9.380000       10.310000
  P1        12.710000        9.050000       12.320002
  O2        12.070000        9.460000       11.100000
  O3        11.960001        8.030001       13.190001
  H4        11.160001        8.510000       13.440001
  O5        14.050001        8.280001       12.230000
  H6        14.310001        8.110001       13.140000
  O7        13.150001       10.240001       13.260001
  H8        13.630000       10.750000       12.600001
  OW         9.520000        9.110001       13.430000
  HW1        8.790001        9.150001       14.100000
  HW2        9.140000        8.980000       12.520000
  OW        13.700001       12.140001       11.240001
  HW1       12.790001       12.010001       10.850000
  HW2       14.330001       12.410001       10.510000
23
 generated by VMD
  C1         8.120001        9.930000       10.580001
  C2         7.930000       10.000000        9.190001
  C3         9.380000        8.470000        9.560000
  N4         9.030001        8.930000       10.760001
  H5         9.390000        8.670000       11.660000
  H6         7.640000       10.310000       11.470001
  H7         7.210000       10.559999        8.610001
  H8        10.060000        7.640000        9.430000
  N9         8.700001        9.050000        8.610001
  P1        12.500000        8.870000       12.520000
  O2        11.160001        8.270000       12.510000
  O3        13.410001        8.350000       13.630000
  H4        12.880001        8.350000       14.430000
  O5        13.470001        8.720000       11.340000
  H6        14.300001        8.650001       11.820001
  O7        12.540001       10.420000       12.610001
  H8        12.220000       10.680000       11.740000
  OW        11.820001        8.330001       15.690001
  HW1       11.720000        8.700001       16.610001
  HW2       10.920000        8.300000       15.250001
  OW        11.510000       11.040001        9.860001
  HW1       10.530001       10.970000       10.020000
  HW2       11.770000       10.410000        9.130000
23
 generated by VMD
  C1         7.900000        9.300001       10.390000
  C2         7.970000        9.830000        9.150001
  C3         9.790000        8.750001        9.410001
  N4         9.030001        8.520000       10.500001
  H5         9.360001        8.010000       11.310000
  H6         7.120000        9.280001       11.140001
  H7         7.250000       10.470000        8.670000
  H8        10.780001        8.370000        9.220000
  N9         9.170000        9.500000        8.550000
  P1        12.320002        8.750001       12.490001
  O2        10.960001        8.250000       12.550001
  O3        13.290001        8.090000       13.590001
  H4        12.880001        8.350000       14.430000
  O5        13.200001        8.590000       11.240001
  H6        14.100000        8.760000       11.530000
  O7        12.450000       10.310000       12.590000
  H8        11.900001       10.610001       11.850000
  OW        12.400000        8.930000       15.870001
  HW1       11.410000        9.080001       15.950001
  HW2       12.880001        9.500000       16.540001
  OW        11.300000       11.390000       10.420000
  HW1       11.460000       12.300000       10.030001
  HW2       10.820000       10.820000        9.750000
23
 generated by VMD
  C1         8.420001       10.310000       10.530001
  C2         8.380001       10.400001        9.160001
  C3         9.130000        8.410000        9.590000
  N4         8.990001        9.050000       10.730000
  H5         9.300001        8.740000       11.640000
  H6         8.250000       11.030001       11.320001
  H7         8.100000       11.250000        8.550000
  H8         9.590000        7.430000        9.510000
  N9         8.800000        9.230000        8.570001
  P1        12.440001        8.940001       12.570001
  O2        11.120001        8.330001       12.730000
  O3        13.450001        8.390000       13.650000
  H4        12.900001        8.050001       14.360001
  O5        13.270000        8.700001       11.300000
  H6        13.940001        9.350000       11.530000
  O7        12.490001       10.460000       12.540001
  H8        11.950001       10.670000       11.760000
  OW        11.840000        7.310000       15.340000
  HW1       11.900001        6.460000       15.850000
  HW2       11.010000        7.300000       14.780001
  OW        11.370001       11.060000       10.200001
  HW1       10.550001       10.510000       10.020000
  HW2       11.730001       11.400002        9.330000
23
 generated by VMD
  C1         8.190001       10.430001       10.680000
  C2         8.510000       10.810001        9.400001
  C3         9.090000        8.740000        9.580001
  N4         8.570001        9.060000       10.760001
  H5         8.440001        8.500000       11.580001
  H6         7.710000       10.970000       11.480000
  H7         8.370000       11.790000        8.970000
  H8         9.560000        7.780001        9.430000
  N9         9.080001        9.750000        8.760000
  P1        12.200001        9.050000       12.740001
  O2        10.830001        8.500000       12.680000
  O3        13.000001        8.680000       14.070001
  H4        13.120001        7.720000       14.030001
  O5        13.350000        8.550000       11.770000
  H6        14.060000        9.070001       12.170000
  O7        12.330000       10.590000       12.560000
  H8        11.910001       10.680000       11.700001
  OW        13.090000        5.970000       14.050001
  HW1       13.720001        5.440001       13.490001
  HW2       12.380000        5.370000       14.420000
  OW        11.500001       10.850000        9.960001
  HW1       10.830001       10.130000        9.810000
  HW2       11.380000       11.570001        9.270000
23
 generated by VMD
  C1         7.510000        8.910000        9.480000
  C2         7.930000       10.240001        9.410001
  C3         9.720000        9.070001        9.510000
  N4         8.670000        8.180000        9.570000
  H5         8.800000        7.200000        9.720000
  H6         6.490001        8.590000        9.640000
  H7         7.280001       11.100000        9.430000
  H8        10.740000        8.730000        9.550000
  N9         9.320001       10.310000        9.430000
  P1        12.650002        8.780001       12.460001
  O2        11.480000        8.170000       11.880001
  O3        13.610001        8.000000       13.410001
  H4        13.000001        7.780001       14.120001
  O5        13.670001        9.440001       11.460000
  H6        14.420000        9.740001       11.980000
  O7        12.260000       10.070001       13.290001
  H8        11.610001       10.470000       12.720001
  OW        11.710000        7.640000       15.360001
  HW1       11.140001        6.810000       15.350000
  HW2       11.420001        8.230000       16.110001
  OW        11.000000       11.720000       11.380000
  HW1       10.400001       11.170001       10.800000
  HW2       11.250000       12.560000       10.910001
23
 generated by VMD
  C1         8.350000        9.300001        9.960001
  C2         8.670000       10.260000        8.990001
  C3        10.410000        9.030001        9.170000
  N4         9.590000        8.640000       10.160000
  H5         9.860001        7.950000       10.830001
  H6         7.470000        9.120001       10.540000
  H7         8.020000       11.020000        8.580000
  H8        11.320001        8.490001        8.960000
  N9         9.930000       10.010000        8.460000
  P1        12.160001        8.860001       12.510000
  O2        11.130000        7.880001       12.220000
  O3        13.410001        8.390000       13.220000
  H4        13.030001        7.790000       13.870001
  O5        12.800001        9.660000       11.370001
  H6        13.560000        9.990001       11.870001
  O7        11.600000       10.010000       13.350000
  H8        10.970000       10.480001       12.800001
  OW        12.320002        7.010000       15.500001
  HW1       11.740000        7.810000       15.680000
  HW2       11.980000        6.230000       16.020000
  OW        10.280000       11.510000       11.510000
  HW1        9.970000       11.080000       10.660001
  HW2        9.950001       12.450000       11.550001
23
 generated by VMD
  C1         9.560000        8.300000        9.670001
  C2         8.890000        9.420000       10.030001
  C3        10.270000       10.000000        8.450001
  N4        10.430001        8.670000        8.660001
  H5        11.060000        8.000000        8.250000
  H6         9.500000        7.290000       10.030001
  H7         8.150001        9.530001       10.810001
  H8        10.800000       10.530001        7.660000
  N9         9.340000       10.500001        9.290000
  P1        11.970000        8.880001       12.600001
  O2        10.600000        8.320000       12.690001
  O3        13.050001        7.990000       13.270000
  H4        12.750001        7.860000       14.170000
  O5        12.680000        9.120001       11.250000
  H6        13.480000        9.610001       11.460000
  O7        12.130001       10.280000       13.280001
  H8        11.590000       10.900001       12.760000
  OW        11.660000        7.240000       15.440001
  HW1       10.780001        7.250000       14.970001
  HW2       11.510000        7.270000       16.430000
  OW        10.470000       11.690001       11.760000
  HW1       10.130000       11.210001       10.940001
  HW2       10.110001       12.620001       11.770000
23
 generated by VMD
  C1         8.520000        8.890000       10.050000
  C2         8.330001        9.740001        9.040001
  C3        10.410000        9.590000        9.110001
  N4         9.930000        8.700001       10.010000
  H5        10.460000        7.990000       10.470000
  H6         7.930000        8.460000       10.840001
  H7         7.370000       10.160000        8.770000
  H8        11.440001        9.820001        8.910000
  N9         9.420000       10.200001        8.450001
  P1        12.390001        8.920000       12.630000
  O2        11.350001        7.940001       12.220000
  O3        13.500000        8.270000       13.590001
  H4        12.930001        7.910000       14.270000
  O5        13.300000        9.520000       11.490001
  H6        13.800001       10.240001       11.890000
  O7        11.880001       10.270000       13.250000
  H8        11.230000       10.530001       12.580000
  OW        11.370001        7.290000       14.960001
  HW1       10.940001        7.050000       14.090000
  HW2       10.680000        7.310000       15.680000
  OW        10.090000       11.130000       11.590000
  HW1        9.460000       11.900001       11.720000
  HW2        9.890000       10.690001       10.710001
23
 generated by VMD
  C1         8.120001        9.080001        9.510000
  C2         8.380001       10.240001        8.890000
  C3        10.290001        9.270000        9.290000
  N4         9.350000        8.440001        9.790000
  H5         9.450001        7.570000       10.290001
  H6         7.140000        8.700001        9.720000
  H7         7.660000       11.000000        8.640000
  H8        11.330000        9.060000        9.490001
  N9         9.730000       10.380001        8.740000
  P1        12.310000        8.840000       12.580000
  O2        11.350001        7.900000       11.990000
  O3        13.330001        8.240001       13.600000
  H4        12.810000        7.740001       14.240000
  O5        13.310001        9.600000       11.710000
  H6        13.780001       10.170001       12.320002
  O7        11.590000       10.080000       13.280001
  H8        11.340000       10.670000       12.570001
  OW        12.080001        7.030000       15.500001
  HW1       11.890000        7.490000       16.370001
  HW2       11.590000        6.150000       15.480001
  OW        10.470000       11.530000       11.360001
  HW1       10.450001       12.510000       11.160001
  HW2        9.960001       11.030001       10.660001
23
 generated by VMD
  C1         8.550000       10.020000       10.480001
  C2         7.530000        9.680000        9.610001
  C3         9.310000        8.580000        8.950001
  N4         9.610001        9.200000       10.090000
  H5        10.510000        9.100000       10.520000
  H6         8.570001       10.670000       11.340000
  H7         6.520000       10.050000        9.550000
  H8         9.980000        7.950000        8.390000
  N9         8.050001        8.810000        8.630000
  P1        12.770000        8.930000       12.650002
  O2        12.130001        8.620001       11.380000
  O3        12.980001        7.780001       13.630000
  H4        12.060001        7.490000       13.680000
  O5        14.170000        9.600000       12.680000
  H6        14.460001        9.570000       13.600000
  O7        11.950001       10.040001       13.450001
  H8        11.940001       10.750000       12.800001
  OW        10.320001        7.110000       13.800001
  HW1        9.880000        6.920000       14.680000
  HW2        9.620001        7.290000       13.110001
  OW        11.990000       11.880001       11.300000
  HW1       12.410001       11.400002       10.530001
  HW2       11.550001       12.710000       10.960001
23
 generated by VMD
  C1         8.360001       10.210000        9.220000
  C2         7.930000        9.000000        9.670001
  C3        10.090000        8.950001        9.730000
  N4         9.730000       10.160000        9.320001
  H5        10.320001       10.890001        8.980000
  H6         7.820001       11.070000        8.880001
  H7         6.890000        8.750001        9.810000
  H8        11.150000        8.710001        9.770000
  N9         9.040001        8.200001        9.960001
  P1        12.580000        8.880001       13.040000
  O2        12.140001        9.830000       12.030001
  O3        12.200001        7.390000       12.950001
  H4        11.260000        7.470000       12.750001
  O5        14.120001        8.740000       13.330001
  H6        14.120001        8.050001       14.000001
  O7        12.120000        9.250001       14.490002
  H8        12.320002       10.190001       14.390000
  OW         9.480000        7.800000       12.570001
  HW1        8.830000        8.280001       13.150001
  HW2        9.230000        7.940001       11.610001
  OW        12.150001       11.860001       10.260000
  HW1       13.140000       12.000000       10.180000
  HW2       11.980000       11.140001       10.940001
23
 generated by VMD
  C1         8.710001       10.520000       10.960001
  C2         8.450001        9.220000       11.170001
  C3         9.560000        9.330000        9.330000
  N4         9.420000       10.580001        9.750000
  H5         9.910001       11.360001        9.330000
  H6         8.480000       11.390000       11.540001
  H7         7.900000        8.780001       11.990000
  H8        10.200001        9.080001        8.490001
  N9         8.950001        8.430000       10.120001
  P1        12.480000        8.940001       12.920000
  O2        12.770000        9.370001       11.560000
  O3        12.340001        7.450001       13.240002
  H4        11.860001        7.070000       12.490001
  O5        13.240002        9.560000       14.200001
  H6        12.580000        9.400001       14.880000
  O7        11.070000        9.430000       13.340001
  H8        10.580001        9.220000       12.540001
  OW        10.640000        6.550000       11.430000
  HW1       10.320001        5.610001       11.330000
  HW2        9.990001        7.170000       10.990001
  OW        12.410001       11.320001        9.490001
  HW1       13.060001       12.070000        9.390000
  HW2       12.720001       10.690001       10.200001
23
 generated by VMD
  C1         8.040000        9.720000       10.520000
  C2         8.000000        8.450001       10.090000
  C3         9.640000        9.280001        8.970000
  N4         9.130000       10.220001        9.850000
  H5         9.550000       11.130000        9.920000
  H6         7.560000       10.320001       11.280001
  H7         7.230000        7.770000       10.410000
  H8        10.460000        9.470000        8.300000
  N9         8.980000        8.200001        9.140000
  P1        12.800001        9.070001       13.150001
  O2        12.770000        9.820001       11.910001
  O3        12.310000        7.620000       13.050001
  H4        11.470001        7.670000       12.590000
  O5        14.170000        8.890000       13.880000
  H6        14.620000        8.200001       13.380001
  O7        11.950001        9.720000       14.310001
  H8        12.390001       10.570001       14.410001
  OW        10.020000        7.320001       11.730001
  HW1        9.560000        6.440001       11.640000
  HW2        9.640000        7.970000       11.080000
  OW        11.680001       11.710000       10.100000
  HW1       12.340001       12.460001       10.030001
  HW2       12.120000       10.930000       10.559999
23
 generated by VMD
  C1         8.320000       10.180000        9.710001
  C2         7.760000        8.910000        9.590000
  C3         9.940001        8.700001        9.490001
  N4         9.710001       10.010000        9.610001
  H5        10.440001       10.710001        9.630001
  H6         7.910000       11.140001        9.970000
  H7         6.710000        8.650001        9.540001
  H8        10.930000        8.380001        9.190001
  N9         8.840000        7.980000        9.470000
  P1        12.730000        9.050000       13.120001
  O2        12.840000        9.780001       11.880001
  O3        12.310000        7.570000       12.950001
  H4        11.380000        7.630000       12.680000
  O5        13.920001        8.870000       14.040001
  H6        14.430000        8.250000       13.510000
  O7        11.690001        9.610001       14.110001
  H8        12.120000        9.260000       14.900002
  OW         9.700001        7.500000       12.260000
  HW1        9.140000        8.160001       12.770000
  HW2        9.360001        7.440000       11.320001
  OW        11.930000       11.890000       10.270000
  HW1       12.740001       12.310000        9.890000
  HW2       12.200001       11.160001       10.910001
23
 generated by VMD
  C1         8.230000       10.030001       10.550001
  C2         7.940001        8.710001       10.150002
  C3         9.770000        9.260000        9.100000
  N4         9.450001       10.370001        9.840000
  H5        10.120001       11.110001        9.930000
  H6         7.620000       10.660001       11.170001
  H7         7.040000        8.150001       10.350000
  H8        10.650001        9.180000        8.490001
  N9         8.880001        8.250000        9.290000
  P1        12.640000        9.110001       13.160001
  O2        13.170000        9.370001       11.840000
  O3        12.220000        7.630000       13.520001
  H4        11.520000        7.470000       12.880001
  O5        13.430000        9.380000       14.470000
  H6        14.340000        9.060000       14.410001
  O7        11.350001       10.020000       13.440001
  H8        11.490001       10.110001       14.390000
  OW        10.410000        6.970000       11.550001
  HW1       10.170001        7.650001       10.860001
  HW2        9.940001        6.110000       11.350001
  OW        12.150001       11.150000        9.850000
  HW1       12.860001       11.670000        9.400001
  HW2       12.560000       10.420000       10.400001
23
 generated by VMD
  C1         8.920000        9.640000       11.160001
  C2         8.360001        8.520000       10.630001
  C3         9.900001        9.230000        9.240000
  N4         9.870001       10.040001       10.290001
  H5        10.590000       10.750000       10.410000
  H6         8.770000       10.200001       12.070000
  H7         7.620000        7.820001       11.000000
  H8        10.440001        9.390000        8.320000
  N9         8.990001        8.290001        9.380000
  P1        12.230000        9.220000       12.990000
  O2        12.530001        9.720000       11.660000
  O3        12.470001        7.680000       13.120001
  H4        11.800001        7.220001       12.600001
  O5        13.090000        9.730000       14.190001
  H6        13.960000        9.370001       13.970001
  O7        10.800000        9.500000       13.610001
  H8        10.810001        9.190001       14.530001
  OW        10.720000        6.650000       11.350001
  HW1       10.100000        7.350000       10.980000
  HW2       10.640000        5.820000       10.800000
  OW        12.380000       11.840000        9.630001
  HW1       13.030001       11.550001        8.930000
  HW2       12.450000       11.240001       10.430001
23
 generated by VMD
  C1         8.230000       10.050000       10.440001
  C2         7.950000        8.750001       10.100000
  C3        10.050000        8.980000        9.840000
  N4         9.590000       10.210000       10.310000
  H5        10.180000       11.020000       10.400001
  H6         7.510000       10.770000       10.810001
  H7         6.990001        8.260000       10.060000
  H8        11.120001        8.950001        9.680000
  N9         9.100000        8.090000        9.700001
  P1        12.420001        9.190001       12.860001
  O2        12.690001        9.310000       11.420001
  O3        12.500000        7.730000       13.390001
  H4        11.770000        7.270000       12.960000
  O5        13.410001        9.870001       13.920001
  H6        14.310001        9.520000       13.880000
  O7        11.020000        9.700001       13.350000
  H8        11.240001        9.720000       14.290000
  OW        10.730000        6.590000       11.740000
  HW1       10.640000        5.630000       11.500001
  HW2       10.210000        7.150001       11.100000
  OW        12.220000       11.620001       10.100000
  HW1       12.860001       12.250000       10.540000
  HW2       12.390001       10.690001       10.420000
23
 generated by VMD
  C1         8.730000        9.960001       10.220001
  C2         7.930000        8.890000       10.070001
  C3         9.680000        8.470000        8.910000
  N4         9.860001        9.700001        9.490001
  H5        10.670000       10.290001        9.390000
  H6         8.650001       10.870000       10.790000
  H7         6.950001        8.780001       10.490000
  H8        10.370001        8.030001        8.200001
  N9         8.550000        7.940001        9.330000
  P1        12.590000        9.210001       13.200001
  O2        12.170000       10.150002       12.150001
  O3        13.290001        8.000000       12.680000
  H4        12.760000        7.550001       12.010001
  O5        13.500000        9.580001       14.410001
  H6        13.420000        8.800000       14.960001
  O7        11.360001        8.600000       14.020000
  H8        10.730000        8.330001       13.340001
  OW        10.470000        7.380000       11.790000
  HW1        9.940001        6.550000       11.620001
  HW2       10.220001        8.070001       11.120001
  OW        11.680001       12.000000       10.310000
  HW1       12.540001       12.430000       10.030001
  HW2       11.860001       11.390000       11.080000
23
 generated by VMD
  C1         8.430000        9.850000       10.960001
  C2         8.120001        8.540000       10.660001
  C3         9.920000        8.980000        9.670001
  N4         9.560000       10.110001       10.250001
  H5         9.970000       11.020000       10.200001
  H6         7.890000       10.610001       11.500001
  H7         7.230000        8.020000       10.980000
  H8        10.760001        8.900001        9.000000
  N9         9.090000        8.010000        9.920000
  P1        12.360001        9.200000       12.850000
  O2        12.800001        9.760000       11.580001
  O3        12.680000        7.680000       12.960000
  H4        12.120000        7.230000       12.310000
  O5        12.900001        9.780001       14.190001
  H6        12.300000        9.420000       14.850000
  O7        10.800000        9.470000       13.200001
  H8        10.340000        9.160001       12.410001
  OW        11.050000        6.460000       11.290001
  HW1       11.320001        5.640000       10.770000
  HW2       10.210000        6.840000       10.910001
  OW        12.390001       12.160001       10.060000
  HW1       13.270000       12.300000        9.600000
  HW2       12.450000       11.360001       10.650001
23
 generated by VMD
  C1         8.510000       10.270000       11.120001
  C2         8.330001        8.960000       11.110001
  C3         9.890000        9.370001        9.650001
  N4         9.500000       10.580001       10.170001
  H5         9.870001       11.490001        9.960001
  H6         8.050001       11.120001       11.600000
  H7         7.550001        8.450001       11.660000
  H8        10.580001        9.230000        8.830000
  N9         9.200000        8.380001       10.210000
  P1        12.180000        9.070001       13.000001
  O2        12.530001        9.870001       11.790000
  O3        12.690001        7.600000       13.030001
  H4        12.490001        7.300000       12.140001
  O5        12.500000        9.630001       14.430000
  H6        11.890000        9.110001       14.980000
  O7        10.660001        8.830000       13.190001
  H8        10.410000        8.800000       12.260000
  OW        11.770000        6.640000       10.500001
  HW1       10.800000        6.530001       10.750000
  HW2       11.850000        6.710000        9.510000
  OW        12.490001       11.280001        9.530001
  HW1       13.280001       11.890000        9.460000
  HW2       12.630000       10.630001       10.270000
