34
 generated by VMD
  C1        14.860001       11.650001       15.930000
  H2        15.390000       10.750000       15.600000
  H3        15.000001       11.760000       17.000000
  H4        15.440001       12.370001       15.350000
  C5        13.430000       12.230000       14.040001
  H6        13.920001       11.510000       13.400001
  H7        13.930000       13.190001       14.170000
  C8        12.790001       12.530001       16.520000
  H9        13.260001       13.520001       16.530001
  H10       11.720000       12.650002       16.350000
  H11       12.970000       12.110001       17.500002
  C12       12.910000       10.310000       15.670000
  H13       12.890000       10.100000       16.740000
  H14       11.910001       10.300001       15.260000
  H15       13.580000        9.670001       15.100001
  C16       12.000000       12.510000       13.420000
  H17       11.370001       13.100000       14.080001
  H18       11.540001       11.540001       13.230000
  C19       12.110001       13.280001       12.080001
  H20       11.100000       13.590001       11.810001
  H21       12.570001       12.730000       11.260000
  N22       13.460001       11.670000       15.580001
  S23       13.130001       14.800000       12.060001
  O24       12.600001       15.620001       13.220000
  O25       14.530001       14.250001       12.450000
  O26       12.960000       15.420000       10.780001
  P1        15.460001       16.090000       15.080000
  O2        15.100001       14.970001       15.960001
  O3        16.150002       15.700001       13.760000
  H4        15.530001       15.230001       13.200001
  O5        14.360001       17.080000       14.540001
  H6        13.660001       16.500000       14.220000
  O7        16.450001       17.100000       15.650001
  H8        16.650002       17.620001       14.860001
34
 generated by VMD
  C1        14.970001       11.560000       15.810001
  H2        15.470000       11.150000       14.930000
  H3        15.110001       10.910001       16.670000
  H4        15.300001       12.590000       15.900001
  C5        13.400001       12.490001       14.290000
  H6        13.570002       11.730001       13.520001
  H7        14.230001       13.200001       14.290000
  C8        12.970000       12.340001       16.750000
  H9        13.350000       13.360001       16.750000
  H10       11.890000       12.210001       16.680000
  H11       13.370000       11.930000       17.670000
  C12       12.850000       10.350000       15.450001
  H13       13.060001        9.890000       16.420000
  H14       11.770000       10.410000       15.290001
  H15       13.340001        9.770000       14.670001
  C16       12.100000       13.110001       13.920001
  H17       12.040001       14.070001       14.440001
  H18       11.210001       12.490001       14.070001
  C19       12.060001       13.500000       12.390001
  H20       11.090001       13.870001       12.060001
  H21       12.270001       12.610001       11.790000
  N22       13.520001       11.660000       15.560001
  S23       13.190001       14.800000       11.860001
  O24       12.880001       15.840001       12.870001
  O25       14.570000       14.300001       12.200001
  O26       12.950001       15.070001       10.460000
  P1        15.320001       15.980000       15.140000
  O2        14.750000       14.800000       15.780001
  O3        16.200001       15.710001       13.900002
  H4        15.660001       15.250001       13.250000
  O5        14.460001       17.130001       14.550000
  H6        13.830000       16.750000       13.920001
  O7        16.240002       16.800001       16.049999
  H8        16.430000       17.520000       15.440001
34
 generated by VMD
  C1        14.820002       11.620001       15.940001
  H2        15.210000       11.040001       15.110001
  H3        14.980000       11.110001       16.880001
  H4        15.270000       12.610001       15.910001
  C5        13.350000       12.540001       14.220000
  H6        14.000001       11.980000       13.540001
  H7        13.750001       13.530001       14.410001
  C8        12.700001       12.530001       16.800001
  H9        13.200001       13.490001       16.860001
  H10       11.630001       12.600001       16.620001
  H11       13.010001       12.120000       17.760002
  C12       12.810000       10.460000       15.540000
  H13       12.830001        9.980000       16.520000
  H14       11.800001       10.559999       15.140000
  H15       13.370000        9.850000       14.830000
  C16       11.970000       12.780001       13.510000
  H17       11.330000       13.470001       14.060000
  H18       11.450001       11.820001       13.460001
  C19       12.170000       13.300000       12.040001
  H20       11.190001       13.500000       11.600000
  H21       12.720001       12.520000       11.510000
  N22       13.400001       11.770000       15.650001
  S23       13.230000       14.750000       11.990000
  O24       12.760000       15.630001       13.050001
  O25       14.600000       14.290000       12.370001
  O26       13.090000       15.250001       10.630001
  P1        15.440001       15.990001       15.090000
  O2        15.060000       14.750000       15.740002
  O3        16.150002       15.840001       13.710001
  H4        15.670000       15.290001       13.080001
  O5        14.320001       17.020000       14.680000
  H6        13.640001       16.630001       14.130001
  O7        16.350000       16.970001       15.890001
  H8        16.430000       17.620001       15.180001
34
 generated by VMD
  C1        14.820002       11.420001       16.080000
  H2        15.240001       10.650001       15.440001
  H3        14.830000       11.100000       17.120001
  H4        15.350000       12.360001       16.030001
  C5        13.480000       12.350000       14.190001
  H6        13.960000       11.610001       13.550000
  H7        14.180001       13.170000       14.320001
  C8        12.760000       12.710000       16.630001
  H9        13.420000       13.560000       16.790001
  H10       11.760000       13.000001       16.310001
  H11       12.780001       12.260000       17.620001
  C12       12.730000       10.450001       15.620001
  H13       12.760000       10.020000       16.620001
  H14       11.740000       10.559999       15.190001
  H15       13.280001        9.770000       14.970001
  C16       12.100000       12.780001       13.590001
  H17       11.810001       13.720001       14.060000
  H18       11.390000       11.960001       13.720001
  C19       12.170000       13.220000       12.170000
  H20       11.200000       13.450001       11.750001
  H21       12.570001       12.480000       11.470001
  N22       13.410001       11.730001       15.650001
  S23       13.230000       14.820002       11.980000
  O24       12.800001       15.740002       13.080001
  O25       14.670001       14.410001       12.270001
  O26       12.950001       15.270000       10.610001
  P1        15.400001       15.980000       15.040001
  O2        14.830000       14.760000       15.560001
  O3        16.220001       15.840001       13.770000
  H4        15.590000       15.390000       13.190001
  O5        14.440001       17.090000       14.540001
  H6        13.730000       16.670000       14.040001
  O7        16.270000       16.800001       16.090000
  H8        16.540001       17.560001       15.550001
34
 generated by VMD
  C1        14.810000       11.550001       15.920001
  H2        15.190001       10.890001       15.140000
  H3        14.930000       11.080000       16.900002
  H4        15.370001       12.480000       15.780001
  C5        13.410001       12.270001       14.190001
  H6        13.840000       11.550001       13.490001
  H7        14.060000       13.140000       14.200001
  C8        12.870001       12.620001       16.580002
  H9        13.280001       13.630000       16.490000
  H10       11.800001       12.730000       16.380001
  H11       13.140000       12.280001       17.580002
  C12       12.820001       10.380001       15.710001
  H13       12.960000       10.050000       16.740000
  H14       11.770000       10.430001       15.480001
  H15       13.290001        9.620001       15.090000
  C16       12.090001       12.700001       13.540001
  H17       11.490001       13.370000       14.170000
  H18       11.510000       11.780001       13.380001
  C19       12.140001       13.460001       12.190001
  H20       11.160001       13.890000       11.990000
  H21       12.380000       12.770000       11.380000
  N22       13.430000       11.710000       15.620001
  S23       13.210001       14.830000       12.040001
  O24       12.790001       15.750000       13.110001
  O25       14.580001       14.310001       12.360001
  O26       13.060001       15.310000       10.690001
  P1        15.400001       15.960001       15.040001
  O2        14.850000       14.710001       15.560001
  O3        16.180000       15.840001       13.670001
  H4        15.600000       15.320001       13.110001
  O5        14.440001       17.110001       14.630001
  H6        13.780001       16.790001       14.000001
  O7        16.250002       16.860001       16.000000
  H8        16.260000       17.710001       15.550001
34
 generated by VMD
  C1        14.770001       11.640000       16.020000
  H2        15.310000       10.930000       15.400001
  H3        14.760000       11.290001       17.050001
  H4        15.240001       12.610001       15.890001
  C5        13.400001       12.290001       14.140000
  H6        13.990001       11.550001       13.590001
  H7        13.900002       13.250000       14.160000
  C8        12.680000       12.700001       16.540001
  H9        13.350000       13.540001       16.670000
  H10       11.720000       12.990000       16.110001
  H11       12.710000       12.300000       17.550001
  C12       12.790001       10.450001       15.740002
  H13       13.190001       10.020000       16.660002
  H14       11.720000       10.580001       15.830001
  H15       13.080001        9.780001       14.930000
  C16       12.040001       12.620001       13.420000
  H17       11.410000       13.300000       14.000001
  H18       11.480000       11.700001       13.260001
  C19       12.190001       13.280001       12.050000
  H20       11.200000       13.630000       11.760000
  H21       12.520000       12.640000       11.240001
  N22       13.380001       11.770000       15.610001
  S23       13.200001       14.810000       12.060001
  O24       12.680000       15.670000       13.160001
  O25       14.600000       14.300001       12.290001
  O26       13.000001       15.280001       10.690001
  P1        15.480001       15.990001       15.060000
  O2        15.150002       14.690001       15.570001
  O3        16.170002       16.020000       13.650000
  H4        15.640001       15.300001       13.300000
  O5        14.300001       16.990002       14.770001
  H6        13.820001       16.630001       14.010000
  O7        16.400002       16.840002       15.960001
  H8        16.250002       17.740000       15.660001
34
 generated by VMD
  C1        14.820002       11.470001       16.090000
  H2        15.320001       10.690001       15.530001
  H3        14.720001       11.130000       17.120001
  H4        15.340000       12.420001       16.200001
  C5        13.480000       12.320002       14.140000
  H6        13.910000       11.500001       13.560000
  H7        14.170000       13.160001       14.190001
  C8        12.840000       12.710000       16.530001
  H9        13.300000       13.660001       16.290001
  H10       11.780001       12.840000       16.310001
  H11       13.020000       12.570001       17.600000
  C12       12.630000       10.530001       15.640001
  H13       12.740001       10.090000       16.630001
  H14       11.600000       10.740000       15.350000
  H15       13.020000        9.800000       14.930000
  C16       12.120000       12.670001       13.480000
  H17       11.570001       13.390001       14.090000
  H18       11.600000       11.720000       13.340001
  C19       12.230000       13.180000       12.040001
  H20       11.220001       13.410001       11.700001
  H21       12.630000       12.500000       11.290001
  N22       13.430000       11.740000       15.580001
  S23       13.150001       14.800000       12.030001
  O24       12.710000       15.490000       13.280001
  O25       14.650001       14.500000       12.190001
  O26       12.850000       15.540000       10.800000
  P1        15.450001       15.970001       15.030001
  O2        14.960001       14.730000       15.640001
  O3        16.410000       15.770000       13.830000
  H4        15.840001       15.320001       13.200001
  O5        14.380001       17.010000       14.480000
  H6        13.660001       16.500000       14.100000
  O7        16.220001       16.960001       16.000000
  H8        16.240002       17.630001       15.310000
34
 generated by VMD
  C1        14.700001       11.530000       16.170002
  H2        15.180001       10.670000       15.720000
  H3        14.720001       11.500001       17.260000
  H4        15.280001       12.390001       15.830001
  C5        13.430000       12.120000       14.000001
  H6        14.010000       11.310000       13.550000
  H7        14.040001       13.030001       13.990001
  C8        12.760000       13.000001       16.340000
  H9        13.430000       13.850001       16.280001
  H10       11.790000       13.270000       15.920001
  H11       12.690001       12.750001       17.400002
  C12       12.510000       10.620001       15.860001
  H13       12.300000       10.520000       16.930000
  H14       11.570001       10.640000       15.310000
  H15       13.030001        9.730000       15.510001
  C16       12.080001       12.390001       13.310001
  H17       11.360001       13.000001       13.860001
  H18       11.520000       11.460000       13.210001
  C19       12.200001       13.140000       11.890000
  H20       11.180000       13.370000       11.580001
  H21       12.710000       12.530001       11.150000
  N22       13.350000       11.800001       15.610001
  S23       13.110001       14.790001       12.070000
  O24       12.560000       15.420000       13.300000
  O25       14.560001       14.390000       12.360001
  O26       12.950001       15.480001       10.790000
  P1        15.610001       16.020000       15.050001
  O2        15.560001       14.680000       15.600000
  O3        16.210001       16.090000       13.630000
  H4        15.660001       15.490000       13.130001
  O5        14.250001       16.780001       14.840001
  H6        13.730000       16.160000       14.310001
  O7        16.370001       17.060001       15.890001
  H8        16.380001       17.700001       15.170001
34
 generated by VMD
  C1        14.580001       11.620001       16.300001
  H2        15.150002       10.910001       15.700001
  H3        14.440001       11.320001       17.340000
  H4        15.150002       12.550001       16.320002
  C5        13.510000       12.250000       14.180001
  H6        14.100000       11.430000       13.750001
  H7        14.100000       13.170000       14.180001
  C8        12.590000       12.880001       16.460001
  H9        13.050001       13.860001       16.480001
  H10       11.560000       12.950001       16.120001
  H11       12.550001       12.590000       17.510000
  C12       12.600001       10.620001       15.770000
  H13       12.450000       10.420000       16.830002
  H14       11.640000       10.630001       15.260000
  H15       13.240002        9.880000       15.280001
  C16       12.220000       12.530001       13.330001
  H17       11.470001       13.100000       13.870001
  H18       11.670000       11.580001       13.250000
  C19       12.410001       13.120001       11.960001
  H20       11.460000       13.230000       11.420001
  H21       13.090000       12.620001       11.270000
  N22       13.310001       11.890000       15.690001
  S23       13.120001       14.810000       12.030001
  O24       12.540001       15.370001       13.330001
  O25       14.570000       14.560001       12.260000
  O26       12.770000       15.450001       10.780001
  P1        15.600000       15.950001       15.000001
  O2        15.230001       14.640001       15.500001
  O3        16.170002       16.000000       13.570002
  H4        15.620001       15.480001       12.980001
  O5        14.480000       16.950001       14.750000
  H6        13.730000       16.510000       14.340000
  O7        16.530001       16.780001       15.920001
  H8        16.290001       17.590000       15.460001
34
 generated by VMD
  C1        14.830000       11.620001       15.950001
  H2        15.320001       11.150000       15.100001
  H3        14.880000       10.980000       16.840002
  H4        15.310000       12.580000       16.110001
  C5        13.320000       12.450000       14.210001
  H6        14.030001       11.780001       13.720001
  H7        13.820001       13.410001       14.250001
  C8        12.890000       12.790001       16.650002
  H9        13.360001       13.730000       16.400002
  H10       11.800001       12.770000       16.590000
  H11       13.250000       12.430000       17.620001
  C12       12.660000       10.580001       15.810001
  H13       13.070001       10.080000       16.690001
  H14       11.590000       10.690001       15.900001
  H15       12.950001       10.010000       14.930000
  C16       11.900001       12.750001       13.590001
  H17       11.360001       13.470001       14.200001
  H18       11.350001       11.800001       13.510000
  C19       12.100000       13.290001       12.140001
  H20       11.090001       13.530001       11.830001
  H21       12.460001       12.590000       11.390000
  N22       13.390001       11.850000       15.650001
  S23       13.230000       14.780001       11.970000
  O24       12.730000       15.720000       12.990000
  O25       14.630001       14.310001       12.390001
  O26       13.110001       15.220001       10.600000
  P1        15.460001       15.910001       15.040001
  O2        15.040001       14.690001       15.770000
  O3        16.270000       15.700001       13.640001
  H4        15.780001       15.050001       13.120001
  O5        14.370001       16.940001       14.620000
  H6        13.700001       16.430000       14.160000
  O7        16.240002       16.970001       15.890001
  H8        16.090000       17.710001       15.300001
34
 generated by VMD
  C1        14.660001       11.760000       16.200001
  H2        15.200001       10.920000       15.750000
  H3        14.550000       11.630001       17.270000
  H4        15.250001       12.670001       16.060001
  C5        13.470001       12.370001       14.140000
  H6        14.080001       11.550001       13.760000
  H7        13.990001       13.330001       14.180001
  C8        12.630000       13.030001       16.450001
  H9        13.270000       13.860001       16.720001
  H10       11.710000       13.340001       15.950001
  H11       12.440001       12.650002       17.450001
  C12       12.590000       10.670000       15.740002
  H13       12.570001       10.300001       16.760002
  H14       11.570001       10.660001       15.370001
  H15       13.150001        9.920000       15.180001
  C16       12.120000       12.460001       13.310001
  H17       11.460000       13.120001       13.880000
  H18       11.630001       11.500001       13.160001
  C19       12.350000       13.060001       11.950001
  H20       11.430000       13.380001       11.460000
  H21       12.830001       12.400000       11.220001
  N22       13.310001       11.980000       15.640001
  S23       13.200001       14.730000       12.090001
  O24       12.640000       15.320001       13.340001
  O25       14.630001       14.410001       12.350000
  O26       12.910000       15.390000       10.820000
  P1        15.520000       15.960001       14.990001
  O2        15.270000       14.660001       15.550001
  O3        16.240002       15.950001       13.580000
  H4        15.710001       15.300001       13.100000
  O5        14.290000       16.900002       14.710001
  H6        13.740001       16.310001       14.190001
  O7        16.350000       16.900002       15.900001
  H8        16.330002       17.640001       15.290001
34
 generated by VMD
  C1        14.700001       11.750001       16.290001
  H2        15.180001       10.940001       15.750000
  H3        14.700001       11.370001       17.310001
  H4        15.170001       12.720001       16.220001
  C5        13.380001       12.210001       14.200001
  H6        14.080001       11.480000       13.790001
  H7        13.890000       13.170000       14.310001
  C8        12.590000       12.830001       16.520000
  H9        13.210001       13.710001       16.710001
  H10       11.750001       13.120001       15.890001
  H11       12.350000       12.400000       17.500002
  C12       12.640000       10.490000       15.930000
  H13       12.940001       10.100000       16.900002
  H14       11.560000       10.550001       15.840001
  H15       13.060001        9.800000       15.200001
  C16       12.050000       12.440001       13.310001
  H17       11.450001       13.160001       13.870001
  H18       11.540001       11.500001       13.070001
  C19       12.340001       13.140000       11.950001
  H20       11.370001       13.450001       11.550001
  H21       12.680000       12.410001       11.210001
  N22       13.250000       11.850000       15.740002
  S23       13.270000       14.750000       11.930000
  O24       12.860001       15.320001       13.260001
  O25       14.700001       14.340000       12.030001
  O26       12.890000       15.480001       10.740000
  P1        15.460001       16.060001       15.060000
  O2        15.120001       14.800000       15.750000
  O3        16.140001       15.870001       13.670001
  H4        15.540000       15.360001       13.110001
  O5        14.310001       17.050001       14.740001
  H6        13.680000       16.520000       14.230001
  O7        16.460001       16.990002       15.810001
  H8        16.770000       17.520000       15.060000
34
 generated by VMD
  C1        14.670001       11.700001       16.320002
  H2        15.360001       11.280001       15.590000
  H3        14.610001       11.100000       17.220001
  H4        15.070001       12.710000       16.450001
  C5        13.520001       12.360001       14.270000
  H6        14.180001       11.670000       13.730000
  H7        14.020000       13.300000       14.460001
  C8        12.510000       12.610001       16.540001
  H9        13.070001       13.500000       16.820000
  H10       11.570001       12.940001       16.080000
  H11       12.400000       12.120000       17.500002
  C12       12.770000       10.410000       15.730000
  H13       12.960000       10.070001       16.750000
  H14       11.690001       10.480001       15.610001
  H15       13.220000        9.680000       15.060000
  C16       12.130001       12.730000       13.580000
  H17       11.510000       13.460001       14.100000
  H18       11.530000       11.810001       13.570002
  C19       12.250000       13.310001       12.150001
  H20       11.250000       13.680000       11.910001
  H21       12.600001       12.580000       11.420001
  N22       13.320000       11.750001       15.680000
  S23       13.280001       14.740001       11.970000
  O24       12.830001       15.660001       13.060001
  O25       14.660001       14.260001       12.280001
  O26       13.120001       15.260000       10.610001
  P1        15.390000       16.010000       14.990001
  O2        14.810000       14.870001       15.650001
  O3        16.250002       15.700001       13.750001
  H4        15.760001       15.060000       13.220000
  O5        14.490002       17.160000       14.440001
  H6        13.820001       16.730001       13.890000
  O7        16.240002       16.880001       15.950001
  H8        16.280001       17.670000       15.390000
34
 generated by VMD
  C1        14.650001       11.580001       16.200001
  H2        15.280001       11.040001       15.490000
  H3        14.560001       10.970000       17.100000
  H4        15.080000       12.560000       16.400002
  C5        13.400001       12.340001       14.240000
  H6        13.980001       11.580001       13.700001
  H7        14.000001       13.240002       14.370001
  C8        12.650002       12.780001       16.540001
  H9        11.650001       12.970000       16.150002
  H10       12.640000       12.260000       17.500002
  H11       13.230000       13.700001       16.630001
  C12       12.570001       10.520000       15.640001
  H13       12.490001       10.290001       16.710001
  H14       11.610001       10.670000       15.170001
  H15       13.100000        9.750000       15.100001
  C16       12.170000       12.700001       13.520001
  H17       11.520000       13.370000       14.080001
  H18       11.550001       11.810001       13.430000
  C19       12.360001       13.180000       12.110001
  H20       11.360001       13.370000       11.720000
  H21       12.810000       12.420001       11.470001
  N22       13.300000       11.810001       15.640001
  S23       13.310001       14.750000       11.980000
  O24       12.870001       15.510001       13.160001
  O25       14.700001       14.220000       12.170000
  O26       13.070001       15.370001       10.670000
  P1        15.380001       16.020000       15.060000
  O2        14.930000       14.840001       15.770000
  O3        16.190001       15.740002       13.770000
  H4        15.590000       15.160000       13.280001
  O5        14.370001       17.080000       14.460001
  H6        13.780001       16.590000       13.880000
  O7        16.320002       17.000000       15.940001
  H8        16.240002       17.790001       15.400001
34
 generated by VMD
  C1        14.540001       11.500001       16.350000
  H2        15.060000       10.800000       15.700001
  H3        14.390000       11.090001       17.350002
  H4        15.120001       12.420001       16.300001
  C5        13.540001       12.130001       14.190001
  H6        13.960000       11.200000       13.810000
  H7        14.280001       12.930001       14.150001
  C8        12.770000       13.070001       16.410000
  H9        11.750001       13.280001       16.090000
  H10       12.850000       12.820001       17.470001
  H11       13.310001       13.950001       16.080000
  C12       12.310000       10.770000       15.950001
  H13       12.420001       10.470000       16.990002
  H14       11.300000       11.050000       15.680000
  H15       12.640000        9.950001       15.310000
  C16       12.220000       12.470001       13.330001
  H17       11.460000       13.090000       13.810000
  H18       11.740000       11.500001       13.140000
  C19       12.500000       13.110001       11.900001
  H20       11.590000       13.330001       11.350001
  H21       13.190001       12.520000       11.290001
  N22       13.280001       11.870001       15.730000
  S23       13.270000       14.760000       12.010001
  O24       12.650002       15.350000       13.250000
  O25       14.700001       14.400001       12.230000
  O26       12.960000       15.430001       10.760001
  P1        15.500001       15.960001       15.010000
  O2        15.400001       14.620000       15.510001
  O3        16.100002       16.130001       13.560000
  H4        15.540000       15.520000       13.060001
  O5        14.200001       16.810001       14.800000
  H6        13.550000       16.330002       14.270000
  O7        16.280001       17.050001       15.890001
  H8        15.870001       17.840000       15.530001
34
 generated by VMD
  C1        14.580001       11.480000       16.180000
  H2        15.040001       10.690001       15.590000
  H3        14.520000       11.250000       17.240002
  H4        15.210000       12.350000       15.990001
  C5        13.490001       12.190001       14.160000
  H6        13.890000       11.290001       13.680000
  H7        14.130001       13.060001       14.230001
  C8        12.730000       12.860001       16.450001
  H9        11.680001       13.030001       16.230000
  H10       12.980001       12.630000       17.490002
  H11       13.210001       13.820001       16.240002
  C12       12.350000       10.600000       15.770000
  H13       12.090001       10.420000       16.810001
  H14       11.410000       10.860001       15.290001
  H15       12.740001        9.710001       15.280001
  C16       12.210001       12.590000       13.470001
  H17       11.690001       13.330001       14.070001
  H18       11.600000       11.690001       13.400001
  C19       12.400000       13.150001       12.080001
  H20       11.400002       13.300000       11.680001
  H21       12.890000       12.370001       11.490001
  N22       13.290001       11.760000       15.600000
  S23       13.250000       14.750000       12.030001
  O24       12.730000       15.490000       13.230000
  O25       14.680000       14.390000       12.290001
  O26       12.900001       15.370001       10.750000
  P1        15.490000       16.030001       15.030001
  O2        15.190001       14.780001       15.690001
  O3        16.190001       15.840001       13.710001
  H4        15.650001       15.200001       13.240002
  O5        14.350000       17.030001       14.560001
  H6        13.720001       16.520000       14.030001
  O7        16.390001       17.040001       15.810001
  H8        16.150002       17.900002       15.440001
34
 generated by VMD
  C1        14.850000       11.700001       15.940001
  H2        15.390000       10.990001       15.310000
  H3        14.910001       11.350001       16.970001
  H4        15.220001       12.710000       15.850000
  C5        13.360001       12.290001       14.190001
  H6        13.770000       11.520000       13.530001
  H7        14.020000       13.150001       14.180001
  C8        12.800001       12.640000       16.690001
  H9        11.730001       12.710000       16.520000
  H10       13.030001       12.330000       17.710001
  H11       13.190001       13.650000       16.560001
  C12       12.880001       10.330000       15.720000
  H13       12.870001       10.000000       16.750000
  H14       11.900001       10.280000       15.260000
  H15       13.570002        9.670001       15.190001
  C16       11.970000       12.790001       13.710001
  H17       11.540001       13.590001       14.320001
  H18       11.290001       11.940001       13.800001
  C19       12.060001       13.410001       12.290001
  H20       11.090001       13.860001       12.060001
  H21       12.240001       12.660000       11.530000
  N22       13.420000       11.730001       15.660001
  S23       13.250000       14.760000       11.950001
  O24       12.910000       15.750000       13.040000
  O25       14.610001       14.190001       12.280001
  O26       13.100000       15.140000       10.559999
  P1        15.370001       16.030001       15.000001
  O2        14.670001       14.870001       15.580001
  O3        16.250002       15.740002       13.780001
  H4        15.690001       15.300001       13.130001
  O5        14.480000       17.240002       14.520000
  H6        13.770000       16.810001       14.040001
  O7        16.300001       16.750000       16.070002
  H8        16.360001       17.630001       15.690001
34
 generated by VMD
  C1        14.650001       11.510000       16.090000
  H2        15.100001       10.720000       15.500001
  H3        14.580001       11.120001       17.100000
  H4        15.350000       12.350000       16.140001
  C5        13.420000       12.190001       14.140000
  H6        14.090000       11.430000       13.730000
  H7        13.840000       13.200001       14.090000
  C8        12.890000       13.020000       16.540001
  H9        11.870001       13.250000       16.240002
  H10       12.910000       12.680000       17.580002
  H11       13.470001       13.910000       16.330002
  C12       12.450000       10.750000       15.860001
  H13       12.230000       10.570001       16.910002
  H14       11.500001       10.890001       15.360001
  H15       12.940001        9.890000       15.400001
  C16       12.080001       12.470001       13.360001
  H17       11.460000       13.210001       13.860001
  H18       11.490001       11.560000       13.230000
  C19       12.310000       13.110001       11.990000
  H20       11.370001       13.370000       11.520000
  H21       12.930001       12.470001       11.350001
  N22       13.310001       11.850000       15.650001
  S23       13.190001       14.760000       11.960001
  O24       12.700001       15.470000       13.150001
  O25       14.670001       14.420000       12.150001
  O26       12.850000       15.370001       10.680000
  P1        15.570001       15.960001       15.080000
  O2        15.530001       14.560001       15.450001
  O3        16.070002       16.210001       13.620001
  H4        15.690001       15.450001       13.160001
  O5        14.230001       16.760002       15.030001
  H6        13.580000       16.300001       14.490002
  O7        16.280001       17.010000       16.040001
  H8        15.930000       17.840000       15.700001
34
 generated by VMD
  C1        14.810000       11.660000       15.930000
  H2        15.400001       11.090001       15.210000
  H3        14.930000       11.310000       16.950001
  H4        15.180001       12.680000       15.840001
  C5        13.330001       12.250000       14.190001
  H6        13.560000       11.400002       13.530001
  H7        14.020000       13.090000       14.130001
  C8        12.830001       12.560000       16.680000
  H9        11.790000       12.780001       16.460001
  H10       13.030001       12.060001       17.630001
  H11       13.340001       13.510000       16.639999
  C12       12.790001       10.370001       15.720000
  H13       12.830001       10.000000       16.740000
  H14       11.740000       10.500001       15.490000
  H15       13.290001        9.690001       15.020000
  C16       12.010001       12.790001       13.660001
  H17       11.600000       13.550000       14.320001
  H18       11.300000       11.960001       13.690001
  C19       12.090001       13.400001       12.260000
  H20       11.150000       13.920001       12.100000
  H21       12.210001       12.700001       11.430000
  N22       13.390001       11.690001       15.620001
  S23       13.320000       14.810000       11.990000
  O24       12.890000       15.780001       13.040000
  O25       14.680000       14.260001       12.280001
  O26       13.070001       15.240001       10.610001
  P1        15.360001       16.010000       15.040001
  O2        14.660001       14.830000       15.580001
  O3        16.160000       15.820000       13.770000
  H4        15.560001       15.260000       13.240002
  O5        14.450001       17.190001       14.620000
  H6        13.700001       16.790001       14.160000
  O7        16.400002       16.690001       15.930000
  H8        16.590000       17.390001       15.290001
34
 generated by VMD
  C1        14.720001       11.450001       15.970001
  H2        15.120001       10.590000       15.450001
  H3        14.830000       11.360001       17.050001
  H4        15.270000       12.330000       15.630001
  C5        13.310001       12.140001       14.070001
  H6        13.880000       11.390000       13.520001
  H7        13.910000       13.060001       14.090000
  C8        12.880001       12.800001       16.400002
  H9        11.830001       13.040000       16.210001
  H10       13.120001       12.590000       17.440001
  H11       13.420000       13.670001       16.040001
  C12       12.450000       10.510000       15.900001
  H13       12.440001       10.310000       16.970001
  H14       11.430000       10.700001       15.610001
  H15       12.820001        9.670001       15.320001
  C16       12.020000       12.510000       13.300000
  H17       11.450001       13.290001       13.810000
  H18       11.410000       11.620001       13.100000
  C19       12.300000       13.170000       11.950001
  H20       11.330000       13.420000       11.530000
  H21       12.830001       12.630000       11.170001
  N22       13.310001       11.720000       15.580001
  S23       13.190001       14.810000       12.070000
  O24       12.680000       15.490000       13.320000
  O25       14.610001       14.380001       12.300000
  O26       12.990000       15.510001       10.810001
  P1        15.490000       16.010000       15.050001
  O2        15.440001       14.670001       15.660001
  O3        16.080000       16.010000       13.610001
  H4        15.600000       15.390000       13.050001
  O5        14.280001       17.010000       14.980000
  H6        13.530001       16.530001       14.610001
  O7        16.460001       17.060001       15.770000
  H8        16.490000       17.690001       15.040001
34
 generated by VMD
  C1        14.900002       11.540001       15.900001
  H2        15.260000       10.730000       15.260000
  H3        15.190001       11.330000       16.930000
  H4        15.510001       12.400000       15.640001
  C5        13.420000       12.380000       14.170000
  H6        14.150001       11.800001       13.610001
  H7        13.950001       13.320000       14.270000
  C8        12.930001       12.640000       16.580002
  H9        11.920000       12.950001       16.320002
  H10       12.990000       12.100000       17.520000
  H11       13.470001       13.580000       16.600000
  C12       12.670001       10.530001       15.680000
  H13       13.040000        9.910001       16.500000
  H14       11.640000       10.870000       15.760001
  H15       12.750001        9.870001       14.810000
  C16       12.060001       12.620001       13.530001
  H17       11.450001       13.270000       14.170000
  H18       11.500001       11.680001       13.530001
  C19       12.190001       13.270000       12.080001
  H20       11.190001       13.540001       11.730001
  H21       12.700001       12.590000       11.390000
  N22       13.460001       11.780001       15.580001
  S23       13.120001       14.800000       12.090001
  O24       12.720001       15.450001       13.390001
  O25       14.560001       14.400001       12.220000
  O26       12.890000       15.510001       10.810001
  P1        15.440001       15.970001       14.990001
  O2        15.000001       14.770001       15.710001
  O3        16.260000       15.750000       13.710001
  H4        15.670000       15.230001       13.150001
  O5        14.420000       17.040001       14.490002
  H6        13.630000       16.590000       14.170000
  O7        16.340000       16.930000       15.860001
  H8        16.410000       17.660000       15.240001
