32
 generated by VMD
  C1         5.100000        9.290000        9.840000
  C2         4.630000        9.720000        8.640000
  C3         6.760001       10.280000        8.740000
  N4         6.440001        9.730000        9.890000
  H5         4.610000        8.970000       10.740000
  H6         3.600000        9.650001        8.340000
  H7         7.780001       10.580001        8.470000
  C8         7.320001        9.670001       11.020000
  H9         8.020000        8.860001       10.830001
  H10        7.840000       10.630001       10.940001
  H11        6.840000        9.550000       11.990000
  N12        5.710001       10.310000        7.960001
  C13        5.610001       10.930000        6.580000
  H14        5.130000       10.180000        5.950000
  H15        6.630001       11.070000        6.220000
  C16        4.850000       12.240001        6.490001
  H17        4.800000       12.400000        5.410000
  H18        3.880000       12.030001        6.950001
  C19        5.510000       13.470001        7.170000
  H20        4.990000       14.400001        6.930000
  H21        6.520000       13.690001        6.810000
  C22        5.510000       13.180000        8.680000
  O23        6.550000       13.200001        9.360001
  O24        4.370000       13.220000        9.240000
  P1         5.440001       12.820001       12.350000
  O2         5.180000       11.410000       12.050000
  O3         4.340000       13.840000       11.840000
  H4         4.220000       13.630000       10.910001
  O5         5.550000       13.320000       13.830000
  H6         5.920000       14.190001       13.680000
  O7         6.840000       13.320000       11.880001
  H8         6.730000       13.200001       10.930000
32
 generated by VMD
  C1         5.590000        8.180000        8.720000
  C2         5.710001        8.850000        7.580000
  C3         5.780000       10.290001        9.240000
  N4         5.650000        9.090000        9.780001
  H5         5.600000        7.120000        8.910000
  H6         5.850000        8.430000        6.600000
  H7         6.030001       11.240001        9.720000
  C8         5.850000        8.800000       11.180000
  H9         5.140000        9.330000       11.810001
  H10        5.910000        7.710000       11.250000
  H11        6.810000        9.150001       11.520000
  N12        5.880000       10.190001        7.930000
  C13        6.160001       11.280001        7.020000
  H14        6.570000       10.770000        6.140000
  H15        7.000000       11.880001        7.370000
  C16        4.920000       12.140001        6.640000
  H17        4.850000       12.190001        5.550000
  H18        4.040000       11.580001        6.950001
  C19        4.890000       13.570002        7.240000
  H20        3.860000       13.900002        7.070000
  H21        5.580000       14.250001        6.740000
  C22        5.150001       13.590001        8.780001
  O23        6.330000       13.760000        9.140000
  O24        4.230000       13.180000        9.600000
  P1         5.830000       13.150001       12.450000
  O2         6.070001       11.780001       11.970000
  O3         4.350000       13.600000       12.250000
  H4         4.190001       13.440001       11.310000
  O5         5.990000       13.590001       13.920001
  H6         5.610001       14.470000       13.910000
  O7         6.830000       14.220000       11.810001
  H8         6.670001       14.090000       10.860001
32
 generated by VMD
  C1         4.930000        8.770000        9.190001
  C2         4.700000        9.480000        8.040000
  C3         6.520000       10.380001        9.070001
  N4         6.140000        9.330000        9.770000
  H5         4.440001        7.920001        9.630001
  H6         3.910000        9.380000        7.330000
  H7         7.240000       11.140001        9.360001
  C8         6.800000        8.960000       10.970000
  H9         6.100000        8.930000       11.800001
  H10        7.240000        7.990000       10.720000
  H11        7.610001        9.630001       11.270000
  N12        5.710001       10.430001        7.960001
  C13        5.950000       11.190001        6.660000
  H14        5.840001       10.370001        5.960000
  H15        6.940000       11.640000        6.710000
  C16        4.900000       12.310000        6.470000
  H17        4.910000       12.510000        5.390000
  H18        3.990000       11.800001        6.800000
  C19        5.180000       13.630000        7.240000
  H20        4.340000       14.330001        7.110000
  H21        6.080000       14.080001        6.820001
  C22        5.320000       13.390001        8.750001
  O23        6.510000       13.350000        9.240000
  O24        4.330000       13.100000        9.460000
  P1         5.710001       12.960000       12.460001
  O2         6.300001       11.650001       12.210001
  O3         4.240000       13.170000       12.010001
  H4         4.270000       12.960000       11.070000
  O5         5.600000       13.490001       13.920001
  H6         5.420001       14.440001       13.870001
  O7         6.510000       14.170000       11.880001
  H8         6.570000       13.940001       10.940001
32
 generated by VMD
  C1         5.050000        8.540000        8.910000
  C2         5.160000        9.140000        7.720000
  C3         6.250000       10.400001        9.180000
  N4         5.740000        9.350000        9.830000
  H5         4.590000        7.610001        9.190001
  H6         4.900000        8.820001        6.730000
  H7         6.790000       11.230000        9.630001
  C8         5.790000        9.010000       11.350001
  H9         5.560000        9.920000       11.910001
  H10        5.050000        8.270000       11.660000
  H11        6.760001        8.580000       11.590000
  N12        5.820000       10.310000        7.890000
  C13        6.130000       11.310000        6.780000
  H14        6.300001       10.710001        5.880000
  H15        7.000000       11.860001        7.120000
  C16        4.960000       12.380000        6.510000
  H17        4.940000       12.590000        5.440001
  H18        4.000000       11.880001        6.720000
  C19        5.160000       13.720001        7.330000
  H20        4.420000       14.450001        6.990001
  H21        6.150000       14.130001        7.110000
  C22        5.100000       13.440001        8.840000
  O23        6.110000       13.590001        9.550000
  O24        4.210001       12.680000        9.230000
  P1         5.980000       13.050001       12.410001
  O2         6.890000       12.000000       12.020000
  O3         4.540000       12.820001       11.960001
  H4         4.640000       12.770000       11.000000
  O5         5.680000       13.370000       13.900002
  H6         5.200000       14.200001       13.800001
  O7         6.430000       14.470000       11.920000
  H8         6.430000       14.370001       10.960001
32
 generated by VMD
  C1         4.960000        8.490001        9.010000
  C2         4.860000        9.200000        7.840000
  C3         6.320000       10.260000        9.110001
  N4         5.830000        9.220000        9.830000
  H5         4.550000        7.540000        9.290000
  H6         4.180000        9.070001        7.020000
  H7         6.950001       11.070000        9.490001
  C8         6.370000        8.820001       11.130000
  H9         6.280000        7.730000       11.160001
  H10        7.420001        9.090000       11.260000
  H11        5.710001        9.230000       11.880001
  N12        5.740000       10.290001        7.950000
  C13        6.080000       11.260000        6.860001
  H14        6.170001       10.670000        5.950000
  H15        7.000000       11.770000        7.150001
  C16        4.940000       12.310000        6.600000
  H17        4.940000       12.550001        5.540000
  H18        4.030000       11.780001        6.920000
  C19        5.070000       13.620001        7.300000
  H20        4.200000       14.260001        7.110000
  H21        5.900001       14.150001        6.840000
  C22        5.330000       13.480000        8.850000
  O23        6.520000       13.600000        9.210001
  O24        4.410000       12.960000        9.510000
  P1         5.790000       13.070001       12.400000
  O2         6.290000       11.770000       11.990000
  O3         4.350000       13.410001       12.070000
  H4         4.300000       13.180000       11.130000
  O5         5.760000       13.440001       13.910000
  H6         5.590000       14.390000       13.850001
  O7         6.560000       14.270000       11.810001
  H8         6.760001       14.050001       10.890001
32
 generated by VMD
  C1         5.100000        8.170000        8.730000
  C2         5.060000        9.030001        7.660000
  C3         6.160001       10.110001        9.280001
  N4         5.780000        8.910000        9.730000
  H5         4.740000        7.190001        8.970000
  H6         4.740000        8.980000        6.630001
  H7         6.740000       10.890001        9.790000
  C8         6.260000        8.430000       11.050000
  H9         5.420001        7.990000       11.600000
  H10        6.970000        7.600000       10.980000
  H11        6.610000        9.240000       11.690001
  N12        5.840001       10.170001        7.960001
  C13        6.130000       11.320001        7.110000
  H14        6.480000       10.860001        6.180000
  H15        7.000000       11.840000        7.500000
  C16        4.940000       12.260000        6.770000
  H17        4.850000       12.350000        5.680000
  H18        4.030000       11.820001        7.190001
  C19        5.040000       13.660001        7.350000
  H20        4.120000       14.140000        7.010000
  H21        5.900001       14.220000        6.970000
  C22        5.190001       13.630000        8.870000
  O23        6.300001       13.390001        9.430000
  O24        4.180000       13.810000        9.550000
  P1         5.810000       13.150001       12.340001
  O2         5.880000       11.780001       11.870001
  O3         4.520000       13.930000       12.070000
  H4         4.520000       13.860001       11.110001
  O5         5.940001       13.440001       13.860001
  H6         5.850000       14.400001       13.870001
  O7         7.000000       14.020000       11.810001
  H8         6.830000       13.900002       10.870000
32
 generated by VMD
  C1         4.500000        8.930000        8.870000
  C2         4.870000        9.620001        7.720000
  C3         6.190000       10.310000        9.340000
  N4         5.350000        9.380000        9.820001
  H5         3.760000        8.190001        9.110001
  H6         4.480000        9.630001        6.720000
  H7         6.910000       10.900001        9.930000
  C8         5.490000        8.920000       11.200000
  H9         4.810000        9.390000       11.920000
  H10        5.150001        7.890000       11.250000
  H11        6.520000        9.080001       11.510000
  N12        5.960000       10.440001        8.040000
  C13        6.700000       11.370001        7.150001
  H14        7.220001       10.840001        6.350000
  H15        7.540000       11.780001        7.710000
  C16        5.880000       12.540001        6.530001
  H17        6.590000       13.340001        6.320000
  H18        5.580000       12.270001        5.520000
  C19        4.640000       13.080001        7.250000
  H20        3.840000       12.340001        7.180000
  H21        4.370000       13.980001        6.690001
  C22        4.950000       13.350000        8.740000
  O23        6.100000       13.790001        9.040001
  O24        4.310000       12.680000        9.530001
  P1         6.030001       12.950001       12.410001
  O2         6.780000       11.740000       12.120000
  O3         4.530000       12.820001       12.270001
  H4         4.390000       12.610001       11.340000
  O5         6.060000       13.690001       13.790001
  H6         5.830000       14.590001       13.540001
  O7         6.460000       14.170000       11.570001
  H8         6.290000       13.970001       10.640000
32
 generated by VMD
  C1         4.720000        8.570001        8.830000
  C2         4.840000        9.310000        7.670000
  C3         6.030001       10.270000        9.310000
  N4         5.550000        9.140000        9.770000
  H5         4.090000        7.730000        9.040001
  H6         4.440001        9.300001        6.670001
  H7         6.460000       11.060000        9.930000
  C8         5.750000        8.580000       11.100000
  H9         5.100000        9.070001       11.830001
  H10        5.470000        7.520000       11.100000
  H11        6.770000        8.720000       11.440001
  N12        5.760000       10.340000        8.000000
  C13        6.280000       11.270000        7.060000
  H14        6.730000       10.730000        6.220000
  H15        7.070000       11.850000        7.520000
  C16        5.210000       12.290001        6.580000
  H17        5.290000       12.450000        5.500000
  H18        4.210001       11.890000        6.770000
  C19        5.220000       13.760000        7.240000
  H20        4.360000       14.360001        6.940000
  H21        6.100000       14.260001        6.830000
  C22        5.360000       13.720001        8.760000
  O23        6.460000       13.690001        9.370001
  O24        4.290000       13.350000        9.360001
  P1         5.920000       12.950001       12.450000
  O2         6.340000       11.590000       12.120000
  O3         4.510000       13.310001       11.930000
  H4         4.450000       13.180000       10.980000
  O5         5.900001       13.470001       13.910000
  H6         5.750000       14.400001       13.710001
  O7         6.850000       14.070001       11.850000
  H8         6.770000       13.900002       10.900001
32
 generated by VMD
  C1         4.560000        8.700001        8.860001
  C2         4.820000        9.370001        7.720000
  C3         5.970000       10.370001        9.300001
  N4         5.380001        9.310000        9.820001
  H5         4.030000        7.780001        9.000000
  H6         4.480000        9.040001        6.750000
  H7         6.600000       11.170001        9.700001
  C8         5.480000        8.810000       11.240001
  H9         5.300000        7.730000       11.300000
  H10        6.510000        9.010000       11.570001
  H11        4.800000        9.370001       11.870001
  N12        5.690000       10.420000        7.990000
  C13        6.320000       11.300000        6.950001
  H14        6.600000       10.630001        6.140000
  H15        7.210000       11.730001        7.400000
  C16        5.270000       12.430000        6.470000
  H17        5.460000       12.610001        5.400000
  H18        4.260000       12.000000        6.470000
  C19        5.340000       13.790001        7.290000
  H20        4.570000       14.500000        6.970000
  H21        6.320000       14.200001        7.060000
  C22        5.300000       13.490001        8.700001
  O23        6.430000       13.580000        9.300001
  O24        4.230000       13.060001        9.220000
  P1         6.040000       12.890000       12.440001
  O2         6.570000       11.640000       11.970000
  O3         4.550000       13.250000       12.130001
  H4         4.510000       13.250000       11.170001
  O5         6.060000       13.210001       13.980001
  H6         5.570001       14.040001       14.070001
  O7         6.740000       14.210001       11.920000
  H8         6.800000       14.060000       10.970000
32
 generated by VMD
  C1         4.850000        8.460000        8.730000
  C2         4.920000        9.230000        7.590001
  C3         6.010000       10.290001        9.170000
  N4         5.580000        9.130000        9.720000
  H5         4.310000        7.540000        8.870000
  H6         4.600000        9.130000        6.570000
  H7         6.470000       11.090001        9.740001
  C8         5.830000        8.680000       11.070000
  H9         5.900001        7.590001       11.040001
  H10        6.770000        9.130000       11.420001
  H11        5.020000        9.020000       11.700001
  N12        5.650000       10.340000        7.890000
  C13        6.060000       11.360001        6.810000
  H14        6.240000       10.840001        5.860000
  H15        7.020000       11.840000        7.030000
  C16        5.020000       12.490001        6.610000
  H17        5.000000       12.740001        5.540000
  H18        4.020000       12.090001        6.770000
  C19        5.330000       13.790001        7.390000
  H20        4.490000       14.440001        7.120000
  H21        6.260000       14.130001        6.930000
  C22        5.450000       13.440001        8.890000
  O23        6.610000       13.480000        9.300001
  O24        4.400000       13.130001        9.560000
  P1         5.830000       13.000001       12.480000
  O2         5.700001       11.620001       12.030001
  O3         4.710000       13.960000       12.060001
  H4         4.530000       13.700001       11.150000
  O5         6.030001       13.420000       14.000001
  H6         5.780000       14.350000       13.960000
  O7         7.060000       13.740001       11.940001
  H8         6.910000       13.710001       10.990001
32
 generated by VMD
  C1         4.690000        9.590000        9.710001
  C2         4.270000       10.020000        8.510000
  C3         6.440001       10.180000        8.480000
  N4         6.100000        9.700001        9.660000
  H5         4.180000        9.250001       10.600000
  H6         3.260000       10.200001        8.200001
  H7         7.430000       10.590000        8.260000
  C8         7.050000        9.380000       10.730000
  H9         6.570000        9.070001       11.650001
  H10        7.790000        8.630000       10.440001
  H11        7.560000       10.280000       11.080000
  N12        5.360000       10.390000        7.780001
  C13        5.390000       11.100000        6.430000
  H14        4.670000       10.570001        5.810000
  H15        6.400001       10.930000        6.070001
  C16        5.030000       12.610001        6.530001
  H17        4.890000       12.900001        5.480000
  H18        4.040000       12.660000        6.980000
  C19        6.050000       13.620001        7.230000
  H20        5.730000       14.610001        6.880000
  H21        7.050000       13.440001        6.840000
  C22        5.890000       13.400001        8.810000
  O23        6.870000       12.770000        9.310000
  O24        4.750000       13.420000        9.360001
  P1         5.470000       12.710000       12.520000
  O2         5.100000       11.330000       12.210001
  O3         4.540000       13.810000       11.950001
  H4         4.490000       13.590001       11.010000
  O5         5.620000       13.300000       13.960000
  H6         6.190000       14.040001       13.720001
  O7         6.890000       12.970000       12.070000
  H8         6.890000       12.970000       11.110001
32
 generated by VMD
  C1         4.860000        8.160001        8.390000
  C2         5.270000        8.860001        7.320001
  C3         5.200000       10.250001        9.070001
  N4         4.950000        9.030001        9.480000
  H5         4.540000        7.140000        8.490001
  H6         5.410000        8.500000        6.320000
  H7         5.130000       11.070000        9.800000
  C8         4.830000        8.670000       10.880001
  H9         5.260000        7.670000       10.980000
  H10        5.460000        9.250001       11.570001
  H11        3.800000        8.510000       11.180000
  N12        5.440001       10.180000        7.770000
  C13        6.050000       11.360001        7.000000
  H14        6.410000       10.920000        6.070001
  H15        6.920000       11.740000        7.550001
  C16        5.070000       12.500000        6.870000
  H17        4.800000       12.610001        5.810000
  H18        4.110000       12.180000        7.300000
  C19        5.470000       13.880000        7.430000
  H20        4.760000       14.650001        7.110000
  H21        6.460000       14.160000        7.060000
  C22        5.550000       13.750001        8.950001
  O23        6.690001       13.470001        9.460000
  O24        4.430000       13.740001        9.570000
  P1         6.140000       12.990000       12.540001
  O2         6.160001       11.580001       12.100000
  O3         4.840000       13.840000       12.160001
  H4         4.790000       13.840000       11.200000
  O5         6.210001       13.360001       14.040001
  H6         6.200000       14.320001       13.930000
  O7         7.290000       13.900002       11.970000
  H8         7.280001       13.770000       11.020000
32
 generated by VMD
  C1         4.680000        8.470000        8.690001
  C2         4.710000        9.300001        7.580000
  C3         5.870000       10.290001        9.170000
  N4         5.460000        9.110001        9.650001
  H5         4.060000        7.620000        8.920000
  H6         4.120000        9.200000        6.690001
  H7         6.520000       11.020000        9.650001
  C8         5.500000        8.750001       11.080000
  H9         4.600000        9.100000       11.580001
  H10        5.500000        7.660000       11.100000
  H11        6.380000        9.170000       11.560000
  N12        5.580000       10.390000        7.880001
  C13        6.110000       11.330000        6.920000
  H14        6.320000       10.740000        6.020000
  H15        7.000000       11.760000        7.360001
  C16        5.090000       12.500000        6.700000
  H17        5.140000       12.580000        5.600000
  H18        4.090000       12.170000        6.970000
  C19        5.550000       13.860001        7.330000
  H20        4.840000       14.640001        7.060000
  H21        6.580000       14.080001        7.040000
  C22        5.530000       13.680000        8.840000
  O23        6.610000       13.460001        9.380000
  O24        4.390000       13.650000        9.390000
  P1         5.940001       12.880001       12.470001
  O2         5.760000       11.560000       11.860001
  O3         4.760000       13.900002       12.400000
  H4         4.630000       13.900002       11.440001
  O5         6.190000       13.010001       14.000001
  H6         6.550000       13.910000       13.970001
  O7         7.100000       13.670001       11.850000
  H8         6.920000       13.570002       10.910001
32
 generated by VMD
  C1         4.200000        9.290000        9.340000
  C2         4.360000        9.850000        8.090000
  C3         6.140000       10.300001        9.330000
  N4         5.300000        9.550000       10.060000
  H5         3.380000        8.740000        9.780001
  H6         3.600000        9.900001        7.330000
  H7         7.130001       10.710001        9.540001
  C8         5.620000        9.070001       11.450001
  H9         4.840000        9.340000       12.160001
  H10        5.600000        7.980000       11.400002
  H11        6.570000        9.460000       11.790000
  N12        5.590000       10.530001        8.090000
  C13        6.300001       11.080000        6.910000
  H14        6.290000       10.340000        6.110000
  H15        7.290000       11.370001        7.240000
  C16        5.520000       12.320002        6.350000
  H17        5.720000       12.550001        5.300000
  H18        4.470000       12.010001        6.250000
  C19        5.610001       13.680000        7.120000
  H20        4.810000       14.330001        6.760001
  H21        6.520000       14.160000        6.760001
  C22        5.560000       13.550000        8.740000
  O23        6.530001       13.930000        9.370001
  O24        4.500000       13.050001        9.160001
  P1         6.010000       12.730000       12.250000
  O2         7.040000       11.840000       11.740000
  O3         4.580000       12.500000       11.730001
  H4         4.630000       12.740001       10.800000
  O5         5.750000       12.660000       13.810000
  H6         5.670000       13.620001       13.840000
  O7         6.200000       14.280001       12.130001
  H8         6.390000       14.410001       11.190001
32
 generated by VMD
  C1         4.950000        9.180000        9.800000
  C2         4.470000        9.660000        8.650001
  C3         6.610000       10.100000        8.740000
  N4         6.280000        9.490001        9.880000
  H5         4.560000        8.670000       10.670000
  H6         3.450000        9.800000        8.330001
  H7         7.550001       10.620001        8.540000
  C8         7.220001        9.070001       10.870000
  H9         7.410001        9.820001       11.640000
  H10        6.840000        8.180000       11.360001
  H11        8.140000        8.840000       10.330000
  N12        5.490000       10.370001        8.090000
  C13        5.440001       11.020000        6.800000
  H14        4.800000       10.370001        6.200000
  H15        6.460000       11.060000        6.410000
  C16        4.830000       12.440001        6.840000
  H17        4.470000       12.560000        5.820000
  H18        3.930000       12.360001        7.460001
  C19        5.750000       13.590001        7.150001
  H20        5.370000       14.530001        6.760001
  H21        6.710000       13.370000        6.670001
  C22        5.880000       13.630000        8.670000
  O23        7.000000       13.250000        9.140000
  O24        4.900000       13.990001        9.310000
  P1         5.320000       12.750001       12.340001
  O2         4.770000       11.460000       11.920000
  O3         4.530000       14.020000       11.850000
  H4         4.500000       14.040001       10.890001
  O5         5.540000       13.070001       13.760000
  H6         5.900001       13.910000       13.460001
  O7         6.800000       13.010001       11.850000
  H8         6.850000       12.920000       10.890001
32
 generated by VMD
  C1         4.820000        8.660001        9.140000
  C2         4.680000        9.370001        7.990000
  C3         6.350000       10.270000        9.100000
  N4         5.890000        9.230000        9.820001
  H5         4.230000        7.820001        9.450001
  H6         4.050000        9.230000        7.130001
  H7         7.100000       11.000000        9.410001
  C8         6.440001        8.750001       11.110001
  H9         7.040000        9.560000       11.530000
  H10        5.570001        8.530001       11.730001
  H11        7.070000        7.870001       11.000000
  N12        5.750000       10.240001        7.900000
  C13        6.010000       11.200000        6.790000
  H14        5.860000       10.559999        5.920000
  H15        7.060000       11.480000        6.780000
  C16        5.020000       12.430000        6.670001
  H17        4.930000       12.530001        5.580000
  H18        4.050000       12.070000        7.040000
  C19        5.480000       13.840000        7.240000
  H20        4.750000       14.590001        6.920000
  H21        6.460000       14.130001        6.880000
  C22        5.510000       13.710001        8.840000
  O23        6.560000       13.260001        9.410001
  O24        4.420000       13.780001        9.410001
  P1         5.640000       12.870001       12.340001
  O2         5.400000       11.530000       11.890000
  O3         4.590000       13.970001       11.950001
  H4         4.540000       13.960000       10.990001
  O5         5.740000       13.200001       13.870001
  H6         5.900001       14.150001       13.920001
  O7         7.050000       13.530001       11.990000
  H8         7.010000       13.280001       11.060000
32
 generated by VMD
  C1         4.820000        8.490001        8.590000
  C2         4.870000        9.290000        7.490000
  C3         6.040000       10.210000        9.200000
  N4         5.360000        9.160001        9.690001
  H5         4.230000        7.620000        8.810000
  H6         4.390000        9.180000        6.530001
  H7         6.720000       10.890001        9.700001
  C8         5.580000        8.670000       11.050000
  H9         5.130000        7.680000       11.100000
  H10        6.610000        8.710001       11.420001
  H11        5.050000        9.290000       11.760000
  N12        5.770000       10.310000        7.870001
  C13        6.340000       11.360001        6.920000
  H14        6.570000       10.870000        5.970000
  H15        7.200000       11.850000        7.360001
  C16        5.300000       12.500000        6.630001
  H17        5.470000       12.680000        5.560000
  H18        4.340000       11.980000        6.760001
  C19        5.400000       13.780001        7.440000
  H20        4.460000       14.320001        7.310000
  H21        6.210001       14.420000        7.070000
  C22        5.530000       13.450001        8.930000
  O23        6.700000       13.560000        9.410001
  O24        4.500000       13.160001        9.540001
  P1         5.840001       13.000001       12.480000
  O2         6.610000       11.860001       11.970000
  O3         4.290000       13.120001       12.060001
  H4         4.390000       13.220000       11.110001
  O5         5.760000       13.320000       13.990001
  H6         5.130000       14.050001       14.100000
  O7         6.460000       14.340000       11.910001
  H8         6.830000       14.060000       11.060000
32
 generated by VMD
  C1         4.970000        9.060000        9.440001
  C2         4.650001        9.380000        8.170000
  C3         6.650000       10.260000        8.650001
  N4         6.310000        9.470000        9.670001
  H5         4.420000        8.600000       10.250001
  H6         3.800000        9.130000        7.570000
  H7         7.480000       10.970000        8.610001
  C8         7.070000        9.400001       10.970000
  H9         7.540000       10.360001       11.170001
  H10        6.440001        9.200000       11.840000
  H11        7.830000        8.630000       10.860001
  N12        5.670000       10.240001        7.750000
  C13        5.620000       11.090001        6.480000
  H14        5.230000       10.420000        5.710001
  H15        6.650000       11.310000        6.190000
  C16        4.880000       12.460001        6.660000
  H17        4.450000       12.800001        5.710001
  H18        4.070000       12.210001        7.350000
  C19        5.660000       13.650000        7.290000
  H20        5.200000       14.560001        6.890000
  H21        6.660000       13.580000        6.870000
  C22        5.680000       13.600000        8.850000
  O23        6.650000       13.070001        9.410001
  O24        4.570000       13.780001        9.390000
  P1         5.400000       12.780001       12.450000
  O2         5.130000       11.460000       11.990000
  O3         4.390000       13.930000       12.130001
  H4         4.380000       13.930000       11.170001
  O5         5.640000       12.980001       13.960000
  H6         6.050000       13.850001       13.900002
  O7         6.800000       13.360001       12.010001
  H8         6.670001       13.360001       11.060000
32
 generated by VMD
  C1         4.890000        8.540000        8.520000
  C2         5.530000        9.060000        7.440000
  C3         5.910000       10.380001        9.140000
  N4         5.240001        9.290000        9.560000
  H5         4.220000        7.710000        8.660001
  H6         5.550000        8.710001        6.420000
  H7         6.330000       11.180000        9.760000
  C8         4.900000        9.180000       11.010000
  H9         4.440001       10.100000       11.370001
  H10        4.270000        8.300000       11.150000
  H11        5.840001        9.020000       11.550001
  N12        6.030001       10.270000        7.820001
  C13        6.340000       11.420001        6.900001
  H14        6.620001       10.910001        5.970000
  H15        7.200000       12.000000        7.230000
  C16        5.100000       12.340001        6.640000
  H17        5.110001       12.520000        5.560000
  H18        4.230000       11.800001        7.040000
  C19        5.110001       13.680000        7.360001
  H20        4.190001       14.240000        7.200000
  H21        5.910000       14.300001        6.960001
  C22        5.230000       13.540001        8.950001
  O23        6.290000       13.930000        9.480000
  O24        4.290000       12.930001        9.550000
  P1         6.050000       12.900001       12.480000
  O2         6.560000       11.600000       12.070000
  O3         4.570000       13.170000       12.100000
  H4         4.400000       13.020000       11.170001
  O5         5.910000       13.300000       13.990001
  H6         6.170001       14.230001       13.910000
  O7         6.920000       14.170000       12.090001
  H8         6.710000       14.090000       11.160001
32
 generated by VMD
  C1         4.790000        8.480000        8.710001
  C2         4.850000        9.260000        7.590001
  C3         5.890000       10.360001        9.200000
  N4         5.620000        9.120001        9.650001
  H5         4.230000        7.580000        8.910000
  H6         4.360000        9.170000        6.640000
  H7         6.290000       11.210001        9.750000
  C8         5.800000        8.710001       11.000000
  H9         5.780000        7.630000       11.150000
  H10        6.790000        8.990001       11.360001
  H11        4.980000        9.140000       11.570001
  N12        5.690000       10.330000        7.890000
  C13        6.180000       11.290001        6.860001
  H14        6.220000       10.730000        5.930000
  H15        7.180000       11.630001        7.140000
  C16        5.160000       12.490001        6.660000
  H17        5.080000       12.600001        5.580000
  H18        4.180000       12.180000        7.030000
  C19        5.560000       13.840000        7.350000
  H20        4.820000       14.600000        7.080000
  H21        6.520000       14.170000        6.940000
  C22        5.730000       13.640001        8.860001
  O23        6.900001       13.380001        9.200000
  O24        4.710000       13.370000        9.590000
  P1         5.730000       12.960000       12.480000
  O2         6.040000       11.600000       12.040001
  O3         4.300000       13.480000       12.170000
  H4         4.300000       13.400001       11.210001
  O5         5.750000       13.280001       14.010000
  H6         5.400000       14.180001       13.980001
  O7         6.590000       14.120001       11.900001
  H8         6.810000       13.710001       11.050000
32
 generated by VMD
  C1         4.980000        8.320000        8.570001
  C2         5.050000        9.090000        7.470000
  C3         5.810000       10.250001        9.150001
  N4         5.480000        9.070001        9.600000
  H5         4.520000        7.350000        8.650001
  H6         4.670000        8.930000        6.480000
  H7         6.360001       10.940001        9.790000
  C8         5.790000        8.510000       10.910001
  H9         5.460000        7.470000       10.860001
  H10        6.870000        8.510000       11.060000
  H11        5.290000        9.000000       11.740000
  N12        5.530000       10.310000        7.780001
  C13        6.070001       11.340000        6.820001
  H14        6.250000       10.820000        5.880000
  H15        7.030000       11.650001        7.220001
  C16        5.160000       12.590000        6.620001
  H17        5.210000       12.750001        5.530000
  H18        4.160000       12.280001        6.940000
  C19        5.510000       13.870001        7.410001
  H20        4.710000       14.590001        7.180000
  H21        6.470000       14.240000        7.040000
  C22        5.640000       13.570002        8.950001
  O23        6.760001       13.150001        9.340000
  O24        4.580000       13.400001        9.650001
  P1         5.770000       13.060001       12.520000
  O2         5.800000       11.700001       11.990000
  O3         4.420000       13.880000       12.270001
  H4         4.200000       13.740001       11.340000
  O5         5.960000       13.400001       14.020000
  H6         6.090000       14.360001       13.980001
  O7         6.850000       14.010000       11.990000
  H8         6.790000       13.700001       11.080000
