19
 generated by VMD
 C        13.034000       10.817000        8.592000
 C        12.844000       12.169000        8.898000
 C        12.165000       12.497000       10.071000
 C        11.700000       11.477000       10.898000
 C        11.932000       10.147000       10.522000
 N        12.587000        9.828000        9.390000
 H        12.001000       13.541000       10.337000
 H        13.559000       10.498000        7.684000
 H        13.217000       12.943000        8.234000
 H        11.168000       11.702000       11.818000
 H        11.586000        9.302000       11.138000
 P        12.141000        6.126000        9.789000
 O        11.723000        6.674000       11.069000
 O        10.895000        5.640000        8.929000
 H        11.242000        5.221000        8.057000
 O        13.008000        7.044000        8.824000
 H        12.809000        8.060000        9.019000
 O        13.034000        4.795000        9.814000
 H        14.015000        5.069000        9.915000
