31
 generated by VMD
  C1         2.600000       12.910000        7.720000
  C2         1.370000       12.250000        7.550001
  C3         0.830000       11.600000        8.640000
  C4         1.530000       11.590000        9.820001
  C5         2.800000       12.110001        9.840000
  N6         3.310000       12.770000        8.840000
  H7        -0.170000       11.200000        8.630000
  H8         3.020000       13.440001        6.860001
  H9         0.930000       12.250000        6.560000
  H10        1.070000       11.120001       10.690001
  H11        3.430000       12.150001       10.730000
  P1         5.060000       15.790001       10.100000
  O2         6.390000       15.290001       10.470000
  O3         4.990000       17.350002        9.920000
  H4         4.080000       17.470001        9.630001
  O5         4.370000       15.340000        8.750001
  H6         4.280000       14.400001        8.930000
  O7         3.950000       15.420000       11.120001
  H8         4.450000       15.600000       11.930000
  OW         7.710000       15.490000       12.770000
  HW1        7.470000       15.310000       11.810001
  HW2        8.460000       16.160000       12.800001
  OW         1.210000       15.450001       10.180000
  HW1        2.090000       15.320001       10.630001
  HW2        0.980000       14.640001        9.650001
  OW         2.410000       17.840000        9.260000
  HW1        1.790000       17.120001        9.580001
  HW2        1.880000       18.660000        9.030001
  OW         5.170000       15.810001       13.660001
  HW1        5.040000       15.200001       14.430000
  HW2        6.130000       15.800000       13.380001
31
 generated by VMD
  C1         4.150000       11.790000        7.930000
  C2         4.460000       10.440001        7.800000
  C3         4.810000        9.770000        8.980000
  C4         4.870000       10.390000       10.200001
  C5         4.520000       11.730001       10.190001
  N6         4.150000       12.480000        9.090000
  H7         5.030000        8.720000        8.830000
  H8         3.800000       12.430000        7.120000
  H9         4.440001        9.950001        6.830000
  H10        5.250000        9.880000       11.090001
  H11        4.590000       12.250000       11.150000
  P1         4.170000       15.980000       10.430001
  O2         4.570000       15.300001       11.650001
  O3         4.880000       17.340000       10.090000
  H4         4.430000       17.630001        9.290000
  O5         4.300000       15.300001        9.010000
  H6         3.880000       14.450001        9.170000
  O7         2.630000       16.230000       10.340000
  H8         2.530000       16.690001       11.180000
  OW         3.390000       15.050001       14.190001
  HW1        3.730000       14.910001       13.260001
  HW2        3.800000       14.380001       14.800000
  OW         1.270000       17.390001        7.970000
  HW1        1.350000       16.550001        8.500000
  HW2        0.460000       17.330000        7.380000
  OW         3.630000       18.650002        8.030001
  HW1        2.790000       18.150002        7.850000
  HW2        3.640000       19.500000        7.510000
  OW         2.250000       17.290001       13.110001
  HW1        2.510000       18.090002       13.650000
  HW2        2.550000       16.460001       13.580000
31
 generated by VMD
  C1         2.920000       11.630001       10.410000
  C2         1.970000       10.640000       10.500001
  C3         0.830000       10.700001        9.710001
  C4         0.680000       11.770000        8.850000
  C5         1.710000       12.750001        8.820001
  N6         2.800000       12.680000        9.570000
  H7         0.060000        9.950001        9.820001
  H8         3.740000       11.580001       11.120001
  H9         2.160000        9.870001       11.230000
  H10       -0.190000       12.000000        8.240001
  H11        1.670000       13.590001        8.140000
  P1         5.140000       15.810001        9.620001
  O2         6.520000       15.510001        9.930000
  O3         4.850000       17.260000        9.140000
  H4         3.890000       17.330000        9.090000
  O5         4.310000       14.970001        8.610001
  H6         3.970000       14.200001        9.070001
  O7         4.160000       15.610001       10.840001
  H8         4.570000       16.220001       11.460000
  OW         8.240001       17.060001       11.730001
  HW1        7.620000       16.680000       11.050000
  HW2        9.130000       17.240002       11.300000
  OW         1.140000       15.810001       10.530001
  HW1        2.010000       15.320001       10.440001
  HW2        0.720000       15.590000       11.420001
  OW         2.190000       17.590000        8.930000
  HW1        1.710000       16.850000        9.410001
  HW2        1.530000       18.310001        8.700001
  OW         5.830000       16.370001       13.090000
  HW1        6.030001       15.410002       13.230000
  HW2        6.630001       16.840002       12.710000
31
 generated by VMD
  C1         1.970000       12.490001        8.400001
  C2         1.140000       11.400002        8.600000
  C3         1.210000       10.630001        9.780001
  C4         2.230000       10.970000       10.670000
  C5         3.000000       12.100000       10.410000
  N6         2.930000       12.840000        9.320001
  H7         0.590000        9.770000        9.980000
  H8         1.810000       13.220000        7.610001
  H9         0.340000       11.170001        7.920001
  H10        2.510000       10.350000       11.510000
  H11        3.830000       12.330000       11.070000
  P1         4.630000       15.770000        9.620001
  O2         5.740000       14.870001        9.420000
  O3         4.890000       17.290001        9.290000
  H4         4.030000       17.710001        9.430000
  O5         3.330000       15.460001        8.820001
  H6         3.260000       14.510001        8.940001
  O7         3.970000       15.720000       11.010000
  H8         4.810000       15.670000       11.480000
  OW         8.430000       15.500001       10.410000
  HW1        7.740001       15.390000        9.690001
  HW2        9.330000       15.310000       10.040001
  OW         1.670000       16.930000       12.000000
  HW1        2.410000       16.480001       11.490001
  HW2        1.320000       16.310001       12.700001
  OW         2.430000       18.390001        9.940001
  HW1        2.010000       17.960001       10.730000
  HW2        2.150000       19.350000        9.900001
  OW         6.270000       15.830001       12.410001
  HW1        6.610000       16.480001       13.090000
  HW2        6.950001       15.740002       11.680001
31
 generated by VMD
  C1         1.450000       13.140000        9.170000
  C2         0.800000       12.470001       10.200001
  C3         1.460000       11.520000       10.920000
  C4         2.790000       11.210001       10.590000
  C5         3.370000       11.910001        9.460000
  N6         2.730000       12.870001        8.790001
  H7         0.940000       10.990001       11.720000
  H8         1.050000       14.010000        8.660001
  H9        -0.190000       12.810000       10.470000
  H10        3.380000       10.440001       11.070000
  H11        4.350000       11.620001        9.110001
  P1         4.930000       16.020000        9.390000
  O2         6.280000       15.480001        9.450001
  O3         4.800000       17.570002        9.410001
  H4         3.850000       17.640001        9.560000
  O5         4.040000       15.680000        8.140000
  H6         3.910000       14.730000        8.250000
  O7         4.020000       15.540000       10.559999
  H8         4.590000       15.290001       11.300000
  OW         8.110001       14.610001       11.010000
  HW1        7.760000       15.080000       10.200001
  HW2        9.080001       14.380001       10.870000
  OW         1.160000       15.870001       11.410000
  HW1        2.010000       15.700001       10.910001
  HW2        1.280000       15.600000       12.370001
  OW         2.150000       18.120001        9.740001
  HW1        1.540000       17.580002       10.310000
  HW2        1.640000       18.490002        8.960000
  OW         5.670000       14.850000       12.520000
  HW1        5.860000       15.630001       13.120001
  HW2        6.510000       14.560001       12.070000
31
 generated by VMD
  C1         1.300000       13.040000        9.680000
  C2         0.910000       12.250000       10.740000
  C3         1.740000       11.200000       11.160001
  C4         2.950000       11.070000       10.550001
  C5         3.330000       12.030001        9.650001
  N6         2.530000       12.990000        9.160001
  H7         1.510000       10.410000       11.870001
  H8         0.630000       13.790001        9.270000
  H9        -0.120000       12.290001       11.080000
  H10        3.700000       10.300001       10.730000
  H11        4.300000       11.970000        9.170000
  P1         4.350000       16.060001        9.290000
  O2         5.370000       15.650001        8.290001
  O3         4.450000       17.570002        9.800000
  H4         3.730000       17.640001       10.440001
  O5         2.850000       15.850000        9.030001
  H6         2.800000       14.910001        8.850000
  O7         4.470000       15.220001       10.650001
  H8         5.420001       15.070001       10.710001
  OW         7.990000       16.170002        8.390000
  HW1        7.010000       16.070002        8.250000
  HW2        8.420001       16.470001        7.540000
  OW         2.100000       14.880000       12.320002
  HW1        2.970000       15.000001       11.830001
  HW2        1.910000       13.900002       12.420001
  OW         2.610000       17.800001       11.740000
  HW1        2.150000       16.960001       12.050000
  HW2        2.580000       18.480000       12.470001
  OW         7.120000       14.970001       10.840001
  HW1        7.760000       14.720001       11.560000
  HW2        7.620000       15.310000       10.040001
31
 generated by VMD
  C1         2.790000       12.370001        9.510000
  C2         2.670000       10.990001        9.460000
  C3         2.100000       10.360001       10.550001
  C4         1.550000       11.130000       11.600000
  C5         1.580000       12.540001       11.450001
  N6         2.210000       13.150001       10.420000
  H7         2.120000        9.280001       10.500001
  H8         3.340000       12.910000        8.740000
  H9         3.130000       10.450001        8.640000
  H10        1.030000       10.670000       12.440001
  H11        1.300000       13.200001       12.260000
  P1         3.790000       16.040001        9.330000
  O2         4.050000       15.380001        8.040000
  O3         4.080000       17.570002        9.330000
  H4         4.220000       17.750000       10.260000
  O5         2.390000       15.970001        9.940001
  H6         2.280000       15.050001       10.210000
  O7         4.670000       15.510001       10.530001
  H8         5.550000       15.680000       10.170001
  OW         6.560000       15.280001        6.920000
  HW1        5.640000       15.280001        7.290000
  HW2        6.530001       15.410002        5.930000
  OW         4.200000       15.720000       13.130001
  HW1        4.340000       15.540000       12.160001
  HW2        4.070000       14.860001       13.620001
  OW         4.640000       18.300001       12.120000
  HW1        4.420000       17.420002       12.530001
  HW2        5.150001       18.860001       12.770000
  OW         7.030000       15.840001        9.460000
  HW1        7.780001       16.490000        9.610001
  HW2        6.940000       15.660001        8.480000
31
 generated by VMD
  C1         2.300000       11.840000       11.360001
  C2         1.700000       10.610001       11.060000
  C3         1.510000       10.300001        9.690001
  C4         1.960000       11.210001        8.760000
  C5         2.460000       12.430000        9.160001
  N6         2.580000       12.770000       10.430001
  H7         1.110000        9.350000        9.380000
  H8         2.480000       12.170000       12.380000
  H9         1.490000        9.870001       11.830001
  H10        1.630000       11.100000        7.730000
  H11        2.730000       13.140000        8.380001
  P1         3.780000       16.190001        9.700001
  O2         3.860000       15.520000        8.440001
  O3         3.460000       17.710001        9.760000
  H4         3.630000       18.040001       10.650001
  O5         2.730000       15.650001       10.680000
  H6         2.740000       14.690001       10.620001
  O7         5.100000       15.990001       10.559999
  H8         5.740000       15.990001        9.840000
  OW         5.870000       14.060000        7.250000
  HW1        4.940000       14.250001        7.570000
  HW2        5.850000       13.830000        6.280000
  OW         5.740000       16.740000       13.220000
  HW1        6.430000       16.220001       13.720001
  HW2        5.540000       16.280001       12.350000
  OW         4.120000       18.760000       12.100000
  HW1        4.860000       18.200001       12.460001
  HW2        4.120000       19.650002       12.560000
  OW         7.010000       15.930000        8.840000
  HW1        7.730000       16.520000        8.480000
  HW2        6.690001       15.320001        8.120001
31
 generated by VMD
  C1         3.290000       11.780001       10.430001
  C2         2.910000       10.580001       10.920000
  C3         1.570000       10.380001       11.260000
  C4         0.660000       11.480000       11.120001
  C5         1.160000       12.670001       10.550001
  N6         2.470000       12.840000       10.270000
  H7         1.250000        9.450001       11.710000
  H8         4.330000       11.910001       10.140000
  H9         3.690000        9.830000       11.080000
  H10       -0.380000       11.410000       11.400002
  H11        0.570000       13.580000       10.520000
  P1         3.990000       15.820000        9.550000
  O2         4.000000       15.150002        8.270000
  O3         3.860000       17.370001        9.410001
  H4         3.920000       17.710001       10.320001
  O5         2.880000       15.530001       10.530001
  H6         2.680000       14.590001       10.500001
  O7         5.290000       15.620001       10.330000
  H8         5.990000       15.800000        9.690001
  OW         5.520000       15.820000        6.240000
  HW1        4.950000       15.390000        6.940000
  HW2        4.990000       16.510000        5.750000
  OW         5.100000       16.140001       13.020000
  HW1        4.610000       15.480001       13.570002
  HW2        5.040000       15.890001       12.050000
  OW         4.290000       18.390001       11.790000
  HW1        4.680000       17.630001       12.310000
  HW2        4.940000       19.139999       11.760000
  OW         7.020000       16.470001        8.420001
  HW1        7.990000       16.490000        8.170000
  HW2        6.470000       16.250002        7.610001
31
 generated by VMD
  C1         3.660000       11.770000        9.510000
  C2         3.280000       10.630001       10.190001
  C3         1.920000       10.280000       10.110001
  C4         1.090000       11.020000        9.310000
  C5         1.580000       12.140001        8.680000
  N6         2.850000       12.540001        8.760000
  H7         1.570000        9.370001       10.580001
  H8         4.660000       12.200001        9.590000
  H9         3.950000       10.230000       10.940001
  H10        0.060000       10.680000        9.240000
  H11        0.920000       12.780001        8.090000
  P1         4.600000       15.760001        9.330000
  O2         5.890000       15.090000        9.180000
  O3         4.670000       17.300001        9.070001
  H4         3.760000       17.580002        9.240000
  O5         3.380000       15.320001        8.460000
  H6         3.290000       14.370001        8.540000
  O7         3.940000       15.590000       10.730000
  H8         4.570000       16.060001       11.280001
  OW         6.920000       14.900002       11.640000
  HW1        6.740000       14.900002       10.660001
  HW2        7.210000       13.990001       11.940001
  OW         2.910000       18.240002       12.690001
  HW1        3.730000       17.670000       12.770000
  HW2        3.020000       19.070000       13.230000
  OW         2.200000       17.990002        9.900001
  HW1        2.380000       18.200001       10.860001
  HW2        1.280000       17.610001        9.800000
  OW         5.510000       17.100000       12.440001
  HW1        6.090000       17.860001       12.740001
  HW2        6.090000       16.310001       12.240001
31
 generated by VMD
  C1         2.190000       12.450000       10.480001
  C2         3.180000       11.560000       10.930000
  C3         4.070000       11.020000        9.980000
  C4         3.930000       11.450001        8.650001
  C5         2.880000       12.290001        8.330001
  N6         2.050000       12.850000        9.220000
  H7         4.830000       10.320001       10.290001
  H8         1.410000       12.710000       11.200000
  H9         3.100000       11.190001       11.940001
  H10        4.640000       11.110001        7.900000
  H11        2.750000       12.610001        7.300000
  P1         3.750000       15.980000        9.570000
  O2         4.660000       14.940001        9.970000
  O3         4.390000       17.210001        8.900001
  H4         3.600000       17.650002        8.560000
  O5         2.740000       15.580001        8.430000
  H6         2.550000       14.710001        8.810000
  O7         2.700000       16.430000       10.640000
  H8         3.280000       16.860001       11.280001
  OW         6.660000       13.760000       11.180000
  HW1        5.820000       14.230001       10.880001
  HW2        6.950001       13.120001       10.480001
  OW         4.320000       17.130001       12.610001
  HW1        4.990000       16.470001       12.940001
  HW2        3.770000       17.460001       13.370000
  OW         2.110000       18.570002        7.690001
  HW1        1.340000       18.960001        8.190001
  HW2        1.870000       18.470001        6.720000
  OW         6.320000       15.220001       13.660001
  HW1        6.790000       15.000001       14.520000
  HW2        6.690001       14.660001       12.930001
31
 generated by VMD
  C1         2.820000       12.100000        8.980000
  C2         2.900000       10.730000        9.340000
  C3         2.310000       10.320001       10.540000
  C4         1.610000       11.280001       11.250000
  C5         1.490000       12.580000       10.710001
  N6         2.120000       13.030001        9.590000
  H7         2.360000        9.310000       10.940001
  H8         3.330000       12.350000        8.060000
  H9         3.460000       10.140000        8.620001
  H10        1.150000       11.020000       12.200001
  H11        0.920000       13.300000       11.280001
  P1         3.940000       16.080000        9.490001
  O2         5.080000       15.150002        9.400001
  O3         4.090000       17.490002        8.840000
  H4         3.190000       17.840000        8.800000
  O5         2.630000       15.610001        8.840000
  H6         2.510000       14.760000        9.280001
  O7         3.380000       16.260000       10.950001
  H8         4.140000       16.490000       11.490001
  OW         7.120000       13.750001       10.590000
  HW1        6.370000       14.280001       10.190001
  HW2        7.190001       12.870001       10.130000
  OW         5.580000       16.690001       12.380000
  HW1        6.360001       16.690001       11.750001
  HW2        5.900001       16.880001       13.310001
  OW         1.590000       18.460001        9.020000
  HW1        0.830000       18.050001        8.500000
  HW2        1.240000       18.870001        9.860001
  OW         7.810000       16.440001       11.160001
  HW1        7.990000       16.930000       10.300001
  HW2        7.840000       15.460001       10.990001
31
 generated by VMD
  C1         2.000000       13.400001       11.000000
  C2         2.730000       12.780001       12.030001
  C3         3.580000       11.730001       11.720000
  C4         3.680000       11.350001       10.360001
  C5         2.870000       11.930000        9.460000
  N6         2.050000       12.900001        9.750000
  H7         4.230000       11.300000       12.470001
  H8         1.410000       14.290000       11.150000
  H9         2.680000       13.150001       13.040000
  H10        4.390000       10.610001       10.020000
  H11        2.850000       11.780001        8.380001
  P1         3.880000       15.820000        8.850000
  O2         5.080000       15.010000        8.940001
  O3         4.010000       17.290001        8.280001
  H4         3.100000       17.610001        8.320000
  O5         2.640000       15.320001        8.020000
  H6         2.330000       14.620000        8.610001
  O7         3.210000       15.960001       10.240001
  H8         3.980000       16.250002       10.740000
  OW         6.870000       13.800001       10.510000
  HW1        6.160001       14.210001        9.930000
  HW2        7.770000       14.010000       10.140000
  OW         5.040000       16.910002       12.090001
  HW1        5.520000       16.100002       12.420001
  HW2        5.370000       17.720001       12.570001
  OW         1.390000       18.100000        8.140000
  HW1        0.950000       17.220001        7.990000
  HW2        0.890000       18.810001        7.650001
  OW         6.380000       14.860001       13.020000
  HW1        7.030000       14.560001       13.720001
  HW2        6.540000       14.360001       12.180000
31
 generated by VMD
  C1         4.020000       12.230000       10.440001
  C2         3.710000       11.700001       11.690001
  C3         2.410000       11.620001       12.090001
  C4         1.420000       11.960001       11.130000
  C5         1.870000       12.440001        9.900001
  N6         3.140000       12.580000        9.520000
  H7         2.210000       11.270000       13.100000
  H8         5.040000       12.570001       10.280000
  H9         4.550000       11.390000       12.310000
  H10        0.380000       11.860001       11.420001
  H11        1.190000       12.770000        9.120001
  P1         4.020000       15.860001        8.880001
  O2         5.340000       15.390000        9.280001
  O3         4.030000       17.320002        8.240001
  H4         3.090000       17.390001        8.050001
  O5         3.140000       15.040001        7.830000
  H6         3.090000       14.090000        7.980000
  O7         2.940000       15.990001       10.070001
  H8         3.390000       16.600000       10.660001
  OW         7.580000       15.170001       10.780001
  HW1        6.780000       15.160000       10.180000
  HW2        8.410000       15.100001       10.220001
  OW         4.220000       17.140001       12.320002
  HW1        4.220000       17.720001       13.130001
  HW2        4.650001       16.260000       12.550001
  OW         1.430000       17.560001        7.470000
  HW1        1.140000       18.260000        6.820001
  HW2        1.110000       16.670000        7.180000
  OW         5.980000       14.780001       12.920000
  HW1        6.530001       14.280001       13.590001
  HW2        6.570000       15.120001       12.190001
31
 generated by VMD
  C1         2.210000       11.440001        9.090000
  C2         1.990000       10.220001        9.770000
  C3         2.260000       10.200001       11.120001
  C4         2.720000       11.340000       11.730001
  C5         2.960000       12.490001       11.000000
  N6         2.650000       12.560000        9.720000
  H7         2.010000        9.370001       11.770000
  H8         1.910000       11.590000        8.060000
  H9         1.500000        9.400001        9.250001
  H10        2.940000       11.280001       12.790001
  H11        3.220000       13.440001       11.440001
  P1         4.290000       15.450001        9.540001
  O2         5.130000       14.780001       10.520000
  O3         4.900000       16.740000        8.890000
  H4         4.290000       16.900002        8.170000
  O5         3.930000       14.680000        8.290001
  H6         3.590000       13.890000        8.720000
  O7         2.910000       15.990001        9.980000
  H8         3.010000       16.510000       10.790000
  OW         6.890000       18.300001       10.350000
  HW1        7.510000       18.760000        9.720000
  HW2        6.420000       17.550001        9.880000
  OW         3.330000       17.580002       12.070000
  HW1        2.890000       18.000000       12.870001
  HW2        4.300000       17.410000       12.280001
  OW         2.610000       17.230000        7.110000
  HW1        1.840000       17.300001        7.750000
  HW2        2.410000       16.530001        6.420000
  OW         5.960000       16.790001       12.460001
  HW1        6.540000       17.410000       11.940001
  HW2        5.780000       15.970001       11.920000
31
 generated by VMD
  C1         2.330000       11.780001        9.260000
  C2         1.240000       11.330000        9.980000
  C3         1.370000       11.070000       11.350001
  C4         2.660000       11.170001       11.850000
  C5         3.690000       11.770000       11.040001
  N6         3.560000       12.030001        9.740001
  H7         0.510000       10.690001       11.890000
  H8         2.230000       11.910001        8.180000
  H9         0.340000       11.170001        9.400001
  H10        2.790000       10.940001       12.900001
  H11        4.710000       11.920000       11.380000
  P1         4.410000       15.270000        9.630001
  O2         5.270000       15.070001       10.770000
  O3         4.600000       16.660002        8.940001
  H4         4.020000       16.590000        8.170000
  O5         4.380000       14.310001        8.350000
  H6         4.020000       13.480000        8.700001
  O7         2.920000       15.280001       10.060000
  H8         3.030000       15.770000       10.880001
  OW         6.630001       18.660000        9.960001
  HW1        6.030001       17.960001        9.570000
  HW2        6.390000       19.550001        9.580001
  OW         2.990000       17.170002       11.890000
  HW1        2.400000       17.800001       12.400000
  HW2        3.950000       17.380001       12.110001
  OW         2.940000       17.180000        6.790000
  HW1        1.960000       17.140001        6.980000
  HW2        3.090000       17.150000        5.810000
  OW         5.720000       17.330000       12.270001
  HW1        6.220000       17.940001       11.650001
  HW2        5.820000       16.390001       11.960001
31
 generated by VMD
  C1         2.920000       12.860001       11.080000
  C2         3.350000       11.980000       12.120000
  C3         3.930000       10.800000       11.700001
  C4         4.050000       10.500001       10.360001
  C5         3.460000       11.350001        9.450001
  N6         2.960000       12.540001        9.770000
  H7         4.310000       10.140000       12.470001
  H8         2.480000       13.840000       11.230000
  H9         3.380000       12.260000       13.160001
  H10        4.470000        9.570000       10.000000
  H11        3.530000       11.180000        8.380001
  P1         4.120000       15.560001        8.990001
  O2         4.590000       15.290001       10.330000
  O3         5.040000       16.450001        8.160001
  H4         4.590000       16.550001        7.310000
  O5         3.870000       14.400001        8.010000
  H6         3.290000       13.780001        8.450001
  O7         2.720000       16.170002        8.950001
  H8         2.860000       16.870001        9.600000
  OW         4.930000       15.030001       12.990000
  HW1        4.910000       15.010000       11.990000
  HW2        5.610001       14.380001       13.320000
  OW         3.000000       18.130001       10.650001
  HW1        2.390000       18.930000       10.580001
  HW2        3.540000       18.200001       11.480000
  OW         2.970000       17.380001        6.350000
  HW1        2.370000       17.780001        5.660000
  HW2        2.460000       17.220001        7.190001
  OW         4.430000       17.720001       13.490001
  HW1        4.610000       16.750000       13.350000
  HW2        5.280000       18.170000       13.780001
31
 generated by VMD
  C1         2.210000       12.550001        9.700001
  C2         1.880000       12.320002       11.010000
  C3         2.880000       11.800001       11.890000
  C4         4.130000       11.480000       11.310000
  C5         4.350000       11.760000        9.950001
  N6         3.420000       12.320002        9.180000
  H7         2.690000       11.590000       12.930001
  H8         1.490000       13.020000        9.030001
  H9         0.870000       12.530001       11.340000
  H10        4.890000       11.050000       11.950001
  H11        5.300000       11.560000        9.470000
  P1         4.410000       15.480001        9.130000
  O2         5.280000       15.030001       10.230000
  O3         4.800000       16.850000        8.400001
  H4         4.200000       16.830002        7.650001
  O5         4.400000       14.480000        7.920001
  H6         3.910000       13.720001        8.240001
  O7         2.890000       15.520000        9.450001
  H8         2.890000       16.290001       10.020000
  OW         5.860000       16.110001       12.670001
  HW1        5.560000       15.810001       11.760000
  HW2        6.840000       16.310001       12.650002
  OW         2.730000       17.670000       11.160001
  HW1        1.910000       18.240002       11.250000
  HW2        3.050000       17.400002       12.060001
  OW         3.100000       16.660002        6.290000
  HW1        2.480000       17.290001        5.820000
  HW2        2.960000       15.730000        5.950000
  OW         3.420000       16.760002       13.690001
  HW1        4.320000       16.560001       13.320000
  HW2        3.470000       16.770000       14.690001
31
 generated by VMD
  C1         3.560000       12.120000       10.390000
  C2         3.110000       11.630001       11.640000
  C3         1.780000       11.880001       12.060001
  C4         0.930000       12.480000       11.100000
  C5         1.420000       12.900001        9.840000
  N6         2.700000       12.700001        9.480000
  H7         1.470000       11.610001       13.060001
  H8         4.610000       12.030001       10.150002
  H9         3.840000       11.220001       12.330000
  H10       -0.130000       12.620001       11.310000
  H11        0.710000       13.330001        9.150001
  P1         4.360000       15.510001        8.960000
  O2         5.270000       14.960001        9.950001
  O3         4.900000       16.690001        8.190001
  H4         4.170000       17.100000        7.710000
  O5         3.870000       14.570000        7.730000
  H6         3.400000       13.930000        8.280001
  O7         3.000000       15.910001        9.570000
  H8         3.330000       16.380001       10.350000
  OW         7.160000       14.730000       11.870001
  HW1        6.420000       14.780001       11.190001
  HW2        7.990000       14.410001       11.430000
  OW         3.800000       17.080000       11.790000
  HW1        3.010000       17.440001       12.300000
  HW2        4.550000       16.900002       12.420001
  OW         2.430000       17.320002        6.640000
  HW1        2.470000       16.500000        6.080000
  HW2        1.650000       17.270000        7.260000
  OW         6.020000       16.720001       13.150001
  HW1        6.530001       15.990001       12.710000
  HW2        6.640000       17.250000       13.730000
31
 generated by VMD
  C1         1.900000       12.020000        9.440001
  C2         1.490000       11.350001       10.620001
  C3         2.460000       10.920000       11.530000
  C4         3.790000       11.150000       11.190001
  C5         4.090000       11.940001       10.060000
  N6         3.170000       12.370001        9.210001
  H7         2.130000       10.480001       12.460001
  H8         1.220000       12.210001        8.620001
  H9         0.460000       11.190001       10.890001
  H10        4.550000       10.790000       11.890000
  H11        5.100000       12.280001        9.870001
  P1         3.960000       15.720000        9.130000
  O2         5.150001       15.280001        9.780001
  O3         4.120000       17.080000        8.460000
  H4         3.390000       17.260000        7.850000
  O5         3.320000       14.920001        7.940001
  H6         3.340000       14.070001        8.400001
  O7         2.720000       15.720000       10.080000
  H8         3.010000       16.340000       10.760001
  OW         7.230000       15.350000       11.510000
  HW1        6.470000       15.430001       10.870000
  HW2        7.800000       14.570000       11.250000
  OW         3.670000       17.350002       12.210001
  HW1        3.390000       18.290001       12.370001
  HW2        4.520000       17.160000       12.690001
  OW         2.170000       18.040001        6.790000
  HW1        2.730000       18.870001        6.830000
  HW2        1.270000       18.270000        6.410000
  OW         6.130000       16.800001       13.740001
  HW1        6.590000       16.230000       13.060001
  HW2        6.610000       16.740000       14.620000
31
 generated by VMD
  C1         1.550000       12.280001        9.360001
  C2         0.800000       11.690001       10.360001
  C3         1.420000       11.410000       11.580001
  C4         2.750000       11.770000       11.710000
  C5         3.420000       12.340001       10.640000
  N6         2.840000       12.600001        9.440001
  H7         0.830000       11.060000       12.420001
  H8         1.130000       12.320002        8.350000
  H9        -0.240000       11.490001       10.120001
  H10        3.280000       11.510000       12.620001
  H11        4.490000       12.510000       10.750000
  P1         4.340000       15.890001        9.060000
  O2         5.730000       15.550001        9.380000
  O3         4.070000       17.290001        8.380001
  H4         3.160000       17.190001        8.090000
  O5         3.580000       14.970001        8.080000
  H6         3.520000       14.140000        8.560000
  O7         3.350000       15.840001       10.340000
  H8         3.650000       16.610001       10.830001
  OW         7.820001       14.980000       10.850000
  HW1        7.160000       15.250001       10.160000
  HW2        8.470000       14.320001       10.450001
  OW         4.590000       17.450001       12.160001
  HW1        5.180000       18.230001       12.000000
  HW2        5.120000       16.710001       12.580000
  OW         1.480000       17.100000        7.660000
  HW1        1.320000       16.120001        7.540000
  HW2        0.640000       17.550001        7.960001
  OW         6.380000       15.560001       13.010001
  HW1        7.030000       15.460001       12.260000
  HW2        6.370000       14.720001       13.560000
