33
 generated by VMD
  C1        16.090000       19.620001       16.080000
  C2        15.220001       19.110001       16.980001
  C3        15.540000       17.560001       15.430001
  N4        16.270000       18.640001       15.120001
  H5        16.580002       20.570002       16.060001
  H6        14.860001       19.460001       17.930000
  H7        15.700001       16.560001       15.030001
  C8        17.390001       18.630001       14.140000
  H9        17.590000       19.640001       13.790001
  H10       18.300001       18.300001       14.640001
  H11       17.160000       17.960001       13.310001
  N12       14.870001       17.820000       16.530001
  C13       13.950001       16.800001       17.200001
  H14       13.310001       17.300001       17.930000
  H15       14.630001       16.200001       17.790001
  C16       13.000001       16.040001       16.190001
  H17       12.060001       16.590000       16.150002
  H18       13.560000       16.110001       15.250001
  C19       12.810000       14.500000       16.370001
  H20       12.150001       14.210001       15.550001
  H21       12.520000       14.200001       17.370001
  S22       14.320001       13.440001       16.190001
  O23       13.890000       12.090001       16.370001
  O24       14.920001       13.740001       14.830000
  O25       15.270000       13.940001       17.240002
  P1        18.280001       14.070001       15.450001
  O2        18.010002       15.440001       15.080000
  O3        19.720001       13.630000       15.420000
  H4        19.420002       12.730000       15.600000
  O5        17.830002       13.520001       16.840002
  H6        16.870001       13.560000       16.910002
  O7        17.520000       12.980001       14.610001
  H8        16.600000       13.260001       14.640001
33
 generated by VMD
  C1        15.530001       19.470001       15.500001
  C2        14.440001       19.060001       16.140001
  C3        15.740002       17.290001       15.940001
  N4        16.350000       18.380001       15.340000
  H5        15.680000       20.459999       15.110001
  H6        13.540001       19.520000       16.510000
  H7        16.230000       16.330002       16.060001
  C8        17.630001       18.370001       14.670001
  H9        17.550001       17.670000       13.850001
  H10       17.850000       19.370001       14.300001
  H11       18.410000       18.010002       15.340000
  N12       14.550000       17.660000       16.330002
  C13       13.670001       16.930000       17.270000
  H14       13.050001       17.660000       17.790001
  H15       14.180001       16.350000       18.040001
  C16       12.690001       16.000000       16.520000
  H17       11.680001       16.260000       16.860001
  H18       12.690001       16.240002       15.460001
  C19       12.940001       14.410001       16.670000
  H20       12.250000       13.980001       15.950001
  H21       12.660000       13.940001       17.620001
  S22       14.610001       13.850001       16.300001
  O23       14.580001       12.440001       16.500000
  O24       14.900002       14.360001       14.900002
  O25       15.500001       14.600000       17.210001
  P1        18.260000       13.830000       15.340000
  O2        18.280001       15.280001       15.220001
  O3        19.590000       13.040000       15.080000
  H4        19.450001       12.090001       15.200001
  O5        17.940001       13.170000       16.710001
  H6        17.050001       13.490001       16.910002
  O7        17.220001       13.120001       14.400001
  H8        16.410000       13.640001       14.450001
33
 generated by VMD
  C1        15.280001       19.110001       14.910001
  C2        14.520000       19.139999       16.080000
  C3        15.890001       17.370001       16.130001
  N4        16.130001       17.970001       14.980000
  H5        15.400001       19.860001       14.150001
  H6        13.800001       19.860001       16.430000
  H7        16.430000       16.510000       16.530001
  C8        17.340000       17.690001       14.210001
  H9        17.390001       16.650002       13.880000
  H10       17.410000       18.390001       13.380001
  H11       18.230001       17.730001       14.840001
  N12       14.750000       17.870001       16.639999
  C13       13.820001       17.140001       17.580002
  H14       13.280001       17.960001       18.050001
  H15       14.390000       16.630001       18.360001
  C16       12.860001       16.190001       16.850000
  H17       11.860001       16.390001       17.240002
  H18       12.790001       16.370001       15.770000
  C19       12.970000       14.610001       16.880001
  H20       12.150001       14.210001       16.280001
  H21       12.780001       14.280001       17.900002
  S22       14.520000       13.870001       16.210001
  O23       14.330001       12.460001       16.049999
  O24       14.920001       14.640001       15.010000
  O25       15.540000       14.190001       17.250000
  P1        18.320002       13.890000       15.480001
  O2        18.440001       15.300001       15.860001
  O3        19.630001       13.210001       15.040001
  H4        19.270000       12.320002       14.990001
  O5        17.850000       12.820001       16.530001
  H6        17.150000       13.270000       17.010000
  O7        17.360001       13.650000       14.300001
  H8        16.510000       13.950001       14.640001
33
 generated by VMD
  C1        15.970001       19.540001       15.720000
  C2        14.770001       19.180000       16.270000
  C3        15.700001       17.290001       15.680000
  N4        16.470001       18.280001       15.210000
  H5        16.420000       20.490000       15.490000
  H6        14.030001       19.750002       16.800001
  H7        15.980000       16.250002       15.740002
  C8        17.640001       18.070000       14.360001
  H9        17.940001       18.990000       13.870001
  H10       18.520000       17.760002       14.930000
  H11       17.390001       17.380001       13.550000
  N12       14.650001       17.810001       16.350000
  C13       13.670001       16.970001       17.100000
  H14       13.020000       17.690001       17.590000
  H15       14.200001       16.510000       17.930000
  C16       12.800001       15.950001       16.260000
  H17       11.760000       16.290001       16.350000
  H18       13.090000       16.020000       15.210000
  C19       12.880001       14.470000       16.770000
  H20       12.150001       13.860001       16.240002
  H21       12.740001       14.380001       17.840000
  S22       14.510001       13.700001       16.500000
  O23       14.330001       12.360001       17.010000
  O24       14.870001       13.800001       15.040001
  O25       15.480001       14.550000       17.270000
  P1        18.170000       13.980001       15.220001
  O2        18.060001       15.410002       14.920001
  O3        19.620001       13.460001       15.170001
  H4        19.460001       12.650002       15.660001
  O5        17.840000       13.440001       16.650002
  H6        16.930000       13.650000       16.880001
  O7        17.320002       12.980001       14.350000
  H8        16.400002       13.220000       14.530001
33
 generated by VMD
  C1        15.330001       19.000000       14.920001
  C2        14.470000       18.820002       15.940001
  C3        15.920001       17.220001       16.010000
  N4        16.130001       17.870001       14.900002
  H5        15.460001       19.790001       14.200001
  H6        13.600000       19.360001       16.270000
  H7        16.470001       16.340000       16.330002
  C8        16.890001       17.280001       13.800001
  H9        16.830002       17.870001       12.880001
  H10       17.940001       17.210001       14.090000
  H11       16.530001       16.300001       13.490001
  N12       14.810000       17.650002       16.570000
  C13       14.090000       16.990002       17.650002
  H14       13.730000       17.810001       18.280001
  H15       14.800000       16.390001       18.200001
  C16       12.860001       16.230000       17.130001
  H17       12.130001       16.470001       17.900002
  H18       12.430000       16.639999       16.210001
  C19       12.970000       14.660001       16.930000
  H20       12.140001       14.360001       16.300001
  H21       12.880001       14.140000       17.889999
  S22       14.490002       13.950001       16.110001
  O23       14.220000       12.540001       15.960001
  O24       14.690001       14.710001       14.890001
  O25       15.520000       14.320001       17.110001
  P1        18.410000       14.010000       15.600000
  O2        18.600002       15.480001       15.690001
  O3        19.720001       13.260001       15.480001
  H4        19.340002       12.380000       15.460001
  O5        17.820000       13.160001       16.780001
  H6        16.930000       13.520001       16.880001
  O7        17.500002       13.590001       14.440001
  H8        16.620001       13.880000       14.700001
33
 generated by VMD
  C1        15.570001       19.020000       14.640001
  C2        14.440001       18.600002       15.170001
  C3        16.020000       17.360001       16.110001
  N4        16.570000       18.320002       15.340000
  H5        15.760001       19.730000       13.850001
  H6        13.430000       18.880001       14.910001
  H7        16.420000       16.470001       16.580002
  C8        18.030001       18.590000       15.290001
  H9        18.440001       18.120001       14.400001
  H10       18.180000       19.670002       15.160000
  H11       18.600002       18.070000       16.060001
  N12       14.680000       17.710001       16.180000
  C13       13.730000       17.070002       17.090000
  H14       13.060001       17.850000       17.450001
  H15       14.270000       16.600000       17.920000
  C16       12.830001       15.970001       16.480001
  H17       11.790000       16.290001       16.550001
  H18       12.970000       15.950001       15.390000
  C19       12.960000       14.530001       17.010000
  H20       12.250000       13.890000       16.490000
  H21       12.650002       14.540001       18.060001
  S22       14.510001       13.590001       16.730001
  O23       14.360001       12.260000       17.270000
  O24       14.690001       13.700001       15.260000
  O25       15.620001       14.390000       17.380001
  P1        18.180000       14.130001       15.140000
  O2        18.140001       15.590000       15.180001
  O3        19.520000       13.440001       14.770001
  H4        19.090000       12.570001       14.760000
  O5        17.780001       13.290001       16.440001
  H6        16.950001       13.580000       16.830002
  O7        17.170002       13.520001       14.090000
  H8        16.330002       13.600000       14.570000
33
 generated by VMD
  C1        15.210000       18.940001       14.550000
  C2        14.210001       18.770000       15.470000
  C3        15.930000       17.430000       16.020000
  N4        16.320002       18.220001       14.970001
  H5        15.270000       19.490002       13.630000
  H6        13.180000       19.080002       15.400001
  H7        16.550001       16.760002       16.610001
  C8        17.700001       18.240002       14.330001
  H9        18.070000       19.270000       14.220000
  H10       18.330000       17.690001       15.030001
  H11       17.610001       17.730001       13.380001
  N12       14.630001       17.740000       16.320002
  C13       13.800001       17.080000       17.350002
  H14       13.270000       17.930000       17.790001
  H15       14.450001       16.580002       18.070000
  C16       12.810000       16.030001       16.820000
  H17       11.810001       16.320002       17.160000
  H18       12.710000       16.150002       15.740002
  C19       13.040000       14.570000       17.060001
  H20       12.270001       13.990001       16.550001
  H21       12.930001       14.370001       18.130001
  S22       14.620000       13.790001       16.480001
  O23       14.290000       12.390001       16.220001
  O24       15.080000       14.530001       15.300001
  O25       15.520000       14.070001       17.670000
  P1        18.250000       13.980001       15.440001
  O2        18.330000       15.440001       15.720000
  O3        19.550001       13.270000       14.940001
  H4        19.350000       12.330000       14.930000
  O5        17.870001       13.000001       16.560001
  H6        17.020000       13.320000       16.900002
  O7        17.260000       13.560000       14.320001
  H8        16.450001       14.030001       14.530001
33
 generated by VMD
  C1        15.310000       18.960001       14.680000
  C2        14.290000       18.720001       15.540000
  C3        15.910001       17.350002       16.010000
  N4        16.330002       18.170000       15.020000
  H5        15.410002       19.730000       13.930000
  H6        13.340001       19.210001       15.670000
  H7        16.560001       16.639999       16.510000
  C8        17.710001       18.220001       14.530001
  H9        18.430000       17.840000       15.250001
  H10       17.640001       17.500002       13.720001
  H11       17.960001       19.210001       14.150001
  N12       14.670001       17.660000       16.320002
  C13       13.810000       17.100000       17.350002
  H14       13.300000       17.960001       17.800001
  H15       14.430000       16.710001       18.160002
  C16       12.760000       16.060001       16.850000
  H17       11.770000       16.360001       17.200001
  H18       12.620001       16.240002       15.780001
  C19       12.990000       14.560001       17.150000
  H20       12.150001       14.000001       16.730001
  H21       12.950001       14.270000       18.200001
  S22       14.530001       13.820001       16.480001
  O23       14.410001       12.380000       16.510000
  O24       14.740001       14.410001       15.110001
  O25       15.580001       14.410001       17.370001
  P1        18.280001       13.970001       15.370001
  O2        18.160002       15.400001       15.500001
  O3        19.680000       13.410001       15.040001
  H4        19.600000       12.460001       15.180001
  O5        17.980001       13.040000       16.570000
  H6        17.140001       13.390001       16.900002
  O7        17.350002       13.320000       14.220000
  H8        16.500000       13.670001       14.530001
33
 generated by VMD
  C1        15.350000       18.900002       14.580001
  C2        14.230001       18.520000       15.270000
  C3        15.910001       17.490002       16.150002
  N4        16.410000       18.390001       15.280001
  H5        15.370001       19.450001       13.650000
  H6        13.180000       18.720001       15.120001
  H7        16.420000       16.680000       16.660002
  C8        17.780001       18.530001       14.980000
  H9        18.010002       18.240002       13.950001
  H10       18.100000       19.560001       15.170001
  H11       18.340000       17.840000       15.610001
  N12       14.590001       17.640001       16.250002
  C13       13.710001       17.150000       17.400002
  H14       13.130001       18.000000       17.760002
  H15       14.470000       16.820000       18.110001
  C16       12.670001       15.990001       16.950001
  H17       11.710000       16.130001       17.460001
  H18       12.480000       16.200001       15.900001
  C19       13.010001       14.510001       17.100000
  H20       12.230000       13.870001       16.690001
  H21       13.150001       14.230001       18.150002
  S22       14.600000       13.930000       16.360001
  O23       14.490002       12.470001       16.330002
  O24       14.770001       14.590001       15.020000
  O25       15.630001       14.410001       17.290001
  P1        18.220001       13.840000       15.340000
  O2        18.040001       15.280001       15.260000
  O3        19.660000       13.300000       14.920001
  H4        19.640001       12.380000       15.230001
  O5        18.090002       13.170000       16.750000
  H6        17.290001       13.580000       17.120001
  O7        17.270000       12.940001       14.540001
  H8        16.460001       13.420000       14.770001
33
 generated by VMD
  C1        15.540000       19.530001       15.140000
  C2        14.410001       19.120001       15.760001
  C3        15.790001       17.500002       15.920001
  N4        16.380001       18.450001       15.210000
  H5        15.810001       20.470001       14.690001
  H6        13.480000       19.640001       15.920001
  H7        16.340000       16.670000       16.360001
  C8        17.570002       18.270000       14.430000
  H9        17.870001       19.230001       14.010000
  H10       18.390001       17.810001       14.970001
  H11       17.320002       17.600000       13.600000
  N12       14.560001       17.830002       16.260000
  C13       13.560000       17.070002       17.040001
  H14       12.830001       17.770000       17.440001
  H15       14.010000       16.610001       17.910002
  C16       12.850000       15.970001       16.260000
  H17       11.790000       16.270000       16.240002
  H18       13.200001       15.880001       15.230001
  C19       12.990000       14.510001       16.810001
  H20       12.340001       13.790001       16.310001
  H21       12.810000       14.400001       17.880001
  S22       14.600000       13.640001       16.520000
  O23       14.570000       12.350000       17.210001
  O24       14.830000       13.690001       15.030001
  O25       15.580001       14.580001       17.130001
  P1        18.210001       13.920001       15.380001
  O2        18.170000       15.370001       15.310000
  O3        19.620001       13.340001       15.160000
  H4        19.520000       12.450000       15.510001
  O5        17.889999       13.160001       16.670000
  H6        17.170002       13.730000       16.970001
  O7        17.340000       13.170000       14.290000
  H8        16.410000       13.320000       14.490002
33
 generated by VMD
  C1        15.210000       19.130001       14.740001
  C2        14.260001       18.900002       15.700001
  C3        15.700001       17.240002       15.840001
  N4        16.080000       18.030001       14.820002
  H5        15.290001       19.910000       14.010000
  H6        13.320000       19.380001       15.910001
  H7        16.190001       16.400002       16.330002
  C8        17.360001       17.870001       14.110001
  H9        17.310001       17.050001       13.400001
  H10       17.530001       18.770000       13.510000
  H11       18.130001       17.760002       14.870001
  N12       14.530001       17.710001       16.340000
  C13       13.720001       17.020000       17.380001
  H14       13.090000       17.770000       17.870001
  H15       14.380001       16.580002       18.120001
  C16       12.730000       16.000000       16.690001
  H17       11.690001       16.190001       16.960001
  H18       12.790001       16.150002       15.610001
  C19       12.990000       14.490002       17.030001
  H20       12.270001       13.950001       16.420000
  H21       12.750001       14.220000       18.070000
  S22       14.590001       13.870001       16.430000
  O23       14.510001       12.450000       16.270000
  O24       14.860001       14.600000       15.140000
  O25       15.600000       14.330001       17.430000
  P1        18.410000       14.000001       15.500001
  O2        18.450001       15.420000       15.620001
  O3        19.760000       13.300000       15.240001
  H4        19.590000       12.560000       15.840001
  O5        18.050001       13.140000       16.700001
  H6        17.200001       13.490001       17.000000
  O7        17.350002       13.400001       14.460001
  H8        16.530001       13.780001       14.800000
33
 generated by VMD
  C1        15.770000       19.640001       15.290001
  C2        15.200001       19.080002       16.380001
  C3        15.640001       17.470001       14.950001
  N4        15.960001       18.630001       14.320001
  H5        15.850000       20.700001       15.130001
  H6        14.770001       19.590000       17.220001
  H7        15.820000       16.480001       14.560001
  C8        16.680000       18.630001       13.010001
  H9        16.860001       19.660000       12.700001
  H10       17.580002       18.030001       13.130001
  H11       16.060001       18.210001       12.220000
  N12       15.110001       17.750000       16.160000
  C13       14.480000       16.740000       17.110001
  H14       14.260001       17.310001       18.010002
  H15       15.280001       16.049999       17.390001
  C16       13.250000       15.990001       16.510000
  H17       12.380000       16.540001       16.880001
  H18       13.260001       16.070002       15.430001
  C19       13.070001       14.520000       16.930000
  H20       12.330000       14.060000       16.290001
  H21       12.970000       14.370001       18.010002
  S22       14.490002       13.440001       16.430000
  O23       14.000001       12.080001       16.200001
  O24       15.020000       14.030001       15.140000
  O25       15.470000       13.580000       17.530001
  P1        18.090002       14.110001       15.810001
  O2        17.610001       15.490000       15.970001
  O3        19.580000       14.030001       15.480001
  H4        19.780001       13.190001       15.910001
  O5        18.110001       13.080001       17.000000
  H6        17.190001       13.040000       17.250000
  O7        17.410000       13.190001       14.760000
  H8        16.460001       13.230000       14.920001
33
 generated by VMD
  C1        15.270000       19.340002       14.980000
  C2        14.290000       18.990000       15.850000
  C3        15.760001       17.320002       15.780001
  N4        16.130001       18.260000       14.910001
  H5        15.380001       20.210001       14.360001
  H6        13.410001       19.520000       16.190001
  H7        16.230000       16.360001       15.940001
  C8        17.280001       18.150002       14.070001
  H9        18.160002       17.760002       14.580001
  H10       17.040001       17.310001       13.410001
  H11       17.530001       19.070000       13.550000
  N12       14.630001       17.740000       16.380001
  C13       13.790001       16.960001       17.330000
  H14       13.220000       17.640001       17.960001
  H15       14.510001       16.450001       17.960001
  C16       12.860001       16.010000       16.530001
  H17       11.830001       16.260000       16.770000
  H18       12.990000       16.250002       15.470000
  C19       13.020000       14.520000       16.720001
  H20       12.320002       14.000001       16.070002
  H21       12.870001       14.120001       17.720001
  S22       14.570000       13.790001       16.340000
  O23       14.330001       12.320002       16.450001
  O24       14.960001       14.430000       15.040001
  O25       15.520000       14.290000       17.400002
  P1        18.360001       13.950001       15.550001
  O2        18.430000       15.420000       15.620001
  O3        19.690001       13.230000       15.360001
  H4        19.300001       12.350000       15.460001
  O5        17.930000       13.100000       16.830002
  H6        17.020000       13.310001       17.070002
  O7        17.470001       13.360001       14.400001
  H8        16.600000       13.710001       14.630001
33
 generated by VMD
  C1        15.180001       18.860001       14.660001
  C2        14.220000       18.610001       15.560001
  C3        15.880001       17.300001       16.040001
  N4        16.230000       18.070000       14.980000
  H5        15.140000       19.580000       13.870001
  H6        13.210001       18.960001       15.600000
  H7        16.530001       16.630001       16.600000
  C8        17.390001       17.810001       14.100000
  H9        17.260000       16.910002       13.510000
  H10       17.500002       18.730001       13.520001
  H11       18.300001       17.570002       14.640001
  N12       14.650001       17.570002       16.390001
  C13       13.890000       16.990002       17.560001
  H14       13.430000       17.810001       18.110001
  H15       14.540001       16.440001       18.240002
  C16       12.780001       16.000000       17.040001
  H17       11.910001       16.090000       17.700001
  H18       12.460001       16.360001       16.060001
  C19       12.990000       14.470000       16.930000
  H20       12.230000       14.030001       16.280001
  H21       12.960000       14.010000       17.920000
  S22       14.520000       13.920001       16.160000
  O23       14.400001       12.490001       16.040001
  O24       14.620000       14.670001       14.880000
  O25       15.610001       14.340000       17.110001
  P1        18.410000       14.030001       15.630001
  O2        18.410000       15.480001       15.810001
  O3        19.790001       13.310001       15.380001
  H4        19.580000       12.380000       15.260000
  O5        17.970001       13.180000       16.890001
  H6        17.120001       13.560000       17.150000
  O7        17.370001       13.600000       14.530001
  H8        16.520000       13.900002       14.880000
33
 generated by VMD
  C1        15.430001       19.410002       15.050001
  C2        14.270000       18.980001       15.580001
  C3        15.850000       17.460001       16.040001
  N4        16.390001       18.460001       15.320001
  H5        15.680000       20.290001       14.490002
  H6        13.280001       19.390001       15.630001
  H7        16.320002       16.639999       16.580002
  C8        17.760002       18.560001       14.790001
  H9        17.700001       18.630001       13.710001
  H10       18.150002       19.490002       15.210000
  H11       18.350000       17.660000       14.980000
  N12       14.600000       17.810001       16.260000
  C13       13.690001       17.030001       17.070002
  H14       13.020000       17.730001       17.560001
  H15       14.280001       16.570000       17.870001
  C16       12.920000       15.990001       16.260000
  H17       11.870001       16.280001       16.260000
  H18       13.110001       16.060001       15.190001
  C19       12.950001       14.520000       16.730001
  H20       12.250000       13.890000       16.180000
  H21       12.620001       14.520000       17.770000
  S22       14.610001       13.680000       16.530001
  O23       14.420000       12.310000       17.040001
  O24       14.890001       13.720001       15.060000
  O25       15.580001       14.450001       17.340000
  P1        18.180000       13.920001       15.280001
  O2        17.750000       15.280001       14.960001
  O3        19.760000       13.670001       15.260000
  H4        19.860001       12.740001       15.510001
  O5        17.870001       13.290001       16.680000
  H6        17.040001       13.640001       17.020000
  O7        17.540001       12.830001       14.370001
  H8        16.650002       13.180000       14.250001
33
 generated by VMD
  C1        15.640001       19.640001       15.510001
  C2        14.620000       19.300001       16.380001
  C3        15.660001       17.490002       15.640001
  N4        16.240002       18.520000       15.070001
  H5        15.970001       20.600002       15.140000
  H6        13.870001       19.830000       16.930000
  H7        15.970001       16.450001       15.580001
  C8        17.280001       18.370001       14.060000
  H9        16.870001       18.460001       13.050001
  H10       18.010002       19.160002       14.250001
  H11       17.780001       17.410000       14.150001
  N12       14.600000       17.889999       16.370001
  C13       13.750001       16.990002       17.120001
  H14       13.040000       17.570002       17.720001
  H15       14.460001       16.470001       17.760002
  C16       12.960000       15.990001       16.240002
  H17       11.900001       16.280001       16.190001
  H18       13.250000       16.100002       15.190001
  C19       12.960000       14.540001       16.550001
  H20       12.240001       13.990001       15.950001
  H21       12.660000       14.300001       17.570002
  S22       14.580001       13.700001       16.300001
  O23       14.280001       12.270001       16.480001
  O24       15.100001       14.090000       15.000001
  O25       15.530001       14.320001       17.350002
  P1        18.260000       13.820001       15.460001
  O2        18.030001       15.180001       14.900002
  O3        19.670002       13.200001       15.350000
  H4        19.310001       12.330000       15.530001
  O5        18.000000       13.630000       17.020000
  H6        17.070002       13.880000       17.120001
  O7        17.330000       12.660000       14.940001
  H8        16.420000       12.980001       14.950001
33
 generated by VMD
  C1        15.380001       18.900002       14.720001
  C2        14.260001       18.600002       15.510001
  C3        16.020000       17.440001       16.280001
  N4        16.380001       18.100000       15.180001
  H5        15.470000       19.600000       13.910000
  H6        13.270000       18.990000       15.390000
  H7        16.630001       16.730001       16.830002
  C8        17.640001       17.860001       14.450001
  H9        17.680000       16.850000       14.040001
  H10       17.870001       18.540001       13.630000
  H11       18.430000       17.720001       15.190001
  N12       14.700001       17.660000       16.490000
  C13       13.910000       16.930000       17.490002
  H14       13.470001       17.770000       18.040001
  H15       14.570000       16.340000       18.120001
  C16       12.780001       16.120001       16.780001
  H17       11.880001       16.340000       17.360001
  H18       12.680000       16.430000       15.740002
  C19       12.970000       14.580001       16.780001
  H20       12.080001       14.090000       16.390001
  H21       13.110001       14.250001       17.810001
  S22       14.490002       13.960000       16.080000
  O23       14.330001       12.510000       15.970001
  O24       14.860001       14.660001       14.830000
  O25       15.530001       14.270000       17.120001
  P1        18.280001       13.940001       15.660001
  O2        18.520000       15.360001       16.020000
  O3        19.490002       13.130001       15.160000
  H4        18.990000       12.310000       15.060000
  O5        17.750000       13.030001       16.760002
  H6        16.970001       13.480000       17.090000
  O7        17.270000       13.760000       14.490002
  H8        16.480001       14.160000       14.880000
33
 generated by VMD
  C1        15.670000       19.540001       15.490000
  C2        14.610001       19.200001       16.340000
  C3        15.750000       17.350002       15.910001
  N4        16.300001       18.380001       15.170001
  H5        15.870001       20.480001       15.010000
  H6        13.730000       19.740002       16.660002
  H7        16.200001       16.370001       16.060001
  C8        17.370001       18.230001       14.160000
  H9        17.220001       18.910000       13.320000
  H10       18.320002       18.360001       14.670001
  H11       17.250000       17.230000       13.750001
  N12       14.640001       17.850000       16.490000
  C13       13.590001       17.020000       17.230000
  H14       12.830001       17.690001       17.640001
  H15       14.120001       16.530001       18.040001
  C16       12.770000       15.940001       16.300001
  H17       11.710000       16.130001       16.490000
  H18       12.900001       16.110001       15.230001
  C19       12.990000       14.420000       16.510000
  H20       12.280001       13.980001       15.810001
  H21       12.770000       14.030001       17.500002
  S22       14.580001       13.840000       16.180000
  O23       14.530001       12.400000       16.270000
  O24       15.070001       14.390000       14.860001
  O25       15.520000       14.430000       17.230000
  P1        18.200001       13.830000       15.550001
  O2        18.170000       15.250001       15.380001
  O3        19.670002       13.220000       15.480001
  H4        19.430000       12.310000       15.710001
  O5        17.730001       13.140000       16.900002
  H6        16.890001       13.580000       17.080000
  O7        17.430000       12.940001       14.450001
  H8        16.510000       13.130001       14.650001
33
 generated by VMD
  C1        15.450001       19.500000       15.170001
  C2        14.390000       19.100000       15.970001
  C3        15.800000       17.420002       15.820000
  N4        16.340000       18.400000       15.040001
  H5        15.660001       20.480001       14.770001
  H6        13.450001       19.550001       16.230000
  H7        16.049999       16.370001       15.730000
  C8        17.740000       18.480000       14.550000
  H9        18.340000       17.840000       15.200001
  H10       17.720001       18.150002       13.510000
  H11       18.070000       19.510000       14.650001
  N12       14.670001       17.820000       16.360001
  C13       13.860001       17.000000       17.300001
  H14       13.280001       17.660000       17.940001
  H15       14.640001       16.460001       17.830002
  C16       12.860001       16.110001       16.550001
  H17       11.870001       16.430000       16.870001
  H18       12.970000       16.250002       15.470000
  C19       12.890000       14.600000       16.730001
  H20       12.060001       14.150001       16.180000
  H21       12.680000       14.280001       17.750000
  S22       14.420000       13.710001       16.210001
  O23       14.140000       12.290001       16.270000
  O24       14.920001       14.160000       14.850000
  O25       15.500001       14.100000       17.220001
  P1        18.310001       13.900002       15.520000
  O2        18.180000       15.310000       15.300001
  O3        19.770000       13.270000       15.430001
  H4        19.560001       12.450000       15.900001
  O5        17.980001       13.290001       16.900002
  H6        17.050001       13.460001       17.090000
  O7        17.370001       12.980001       14.560001
  H8        16.480001       13.370000       14.600000
33
 generated by VMD
  C1        15.800000       19.440001       15.540000
  C2        14.760000       19.090000       16.400002
  C3        15.710001       17.210001       15.640001
  N4        16.430000       18.250000       15.130001
  H5        16.200001       20.400002       15.230001
  H6        14.090000       19.720001       16.960001
  H7        15.940001       16.160000       15.450001
  C8        17.500002       18.150002       14.110001
  H9        18.450001       17.920000       14.600000
  H10       17.220001       17.420002       13.350000
  H11       17.580002       19.090000       13.560000
  N12       14.740001       17.670000       16.400002
  C13       13.890000       16.940001       17.300001
  H14       13.300000       17.640001       17.900002
  H15       14.580001       16.390001       17.930000
  C16       12.790001       16.070002       16.560001
  H17       11.840000       16.300001       17.050001
  H18       12.720001       16.370001       15.520000
  C19       12.800001       14.530001       16.670000
  H20       12.050000       14.080001       16.010000
  H21       12.660000       14.200001       17.700001
  S22       14.410001       13.810000       16.160000
  O23       14.250001       12.330000       16.190001
  O24       14.710001       14.400001       14.800000
  O25       15.420000       14.330001       17.130001
  P1        18.270000       13.900002       15.560001
  O2        18.000000       15.310000       15.420000
  O3        19.720001       13.550000       15.320001
  H4        19.700001       12.610001       15.560001
  O5        18.080002       13.230000       16.940001
  H6        17.180000       13.490001       17.160000
  O7        17.440001       12.990000       14.610001
  H8        16.500000       13.180000       14.680000
33
 generated by VMD
  C1        15.450001       19.470001       15.230001
  C2        14.510001       19.090000       16.130001
  C3        15.810001       17.360001       15.760001
  N4        16.260000       18.360001       15.010000
  H5        15.550001       20.380001       14.670001
  H6        13.680000       19.700001       16.450001
  H7        16.290001       16.400002       15.930000
  C8        17.360001       18.200001       14.020000
  H9        17.400002       19.130001       13.450001
  H10       18.300001       18.090002       14.570000
  H11       17.210001       17.330000       13.380001
  N12       14.760000       17.760002       16.450001
  C13       13.970001       16.940001       17.350002
  H14       13.550000       17.510000       18.180000
  H15       14.740001       16.330002       17.830002
  C16       12.890000       16.100002       16.550001
  H17       11.910001       16.390001       16.940001
  H18       12.860001       16.410000       15.500001
  C19       12.930001       14.590001       16.660002
  H20       12.180000       14.110001       16.020000
  H21       12.740001       14.240000       17.680000
  S22       14.490002       13.780001       16.130001
  O23       14.250001       12.320002       15.970001
  O24       14.890001       14.530001       14.940001
  O25       15.500001       14.160000       17.150000
  P1        18.300001       13.860001       15.650001
  O2        18.430000       15.300001       15.530001
  O3        19.610001       13.020000       15.420000
  H4        19.190002       12.190001       15.640001
  O5        17.889999       13.260001       17.060001
  H6        17.050001       13.690001       17.230000
  O7        17.270000       13.230000       14.690001
  H8        16.420000       13.680000       14.710001
