29
 generated by VMD
  C1         5.110001        1.430000        7.770000
  C2         5.720000        1.310000        9.000000
  C3         7.060000        1.740000        9.150001
  C4         7.740001        2.280000        8.050001
  C5         7.000000        2.460000        6.840000
  H6         7.580000        1.650000       10.090000
  H7         4.100000        1.000000        7.670000
  H8         8.710001        2.720000        8.220000
  H9         7.420001        3.010000        6.010000
  C10        4.900000        0.740000       10.160000
  H11        5.280000        0.990000       11.160001
  H12        3.870000        1.060000       10.060000
  H13        5.060000       -0.340000       10.110001
  N14        5.730000        2.030000        6.760001
  C15        4.830000        2.480000        5.580000
  H16        5.400000        2.180000        4.710000
  H17        3.850000        2.010000        5.690000
  C18        4.620000        3.990000        5.650000
  H19        5.580000        4.440001        5.920000
  H20        4.410000        4.380000        4.640000
  C21        3.510000        4.370000        6.600000
  H22        3.260000        5.420001        6.490001
  H23        2.610000        3.820000        6.280000
  C24        3.720000        4.070000        8.090000
  O25        4.770000        4.320000        8.560000
  O26        2.910000        3.220000        8.510000
  OW         1.040000        1.360000        8.010000
  HW1        0.220000        1.550000        8.550000
  HW2        1.790000        1.950000        8.320000
29
 generated by VMD
  C1         5.170000        1.470000        7.800000
  C2         5.810000        1.090000        8.970000
  C3         7.090001        1.630000        9.160001
  C4         7.630000        2.530000        8.220000
  C5         6.930000        2.920000        7.120000
  H6         7.630000        1.290000       10.040001
  H7         4.090000        1.260000        7.650001
  H8         8.660001        2.850000        8.300000
  H9         7.230000        3.720000        6.460000
  C10        5.090000        0.040000        9.840000
  H11        4.070000        0.380000       10.010000
  H12        5.150001       -0.980000        9.470000
  H13        5.490000        0.110000       10.850000
  N14        5.720000        2.390000        6.880000
  C15        5.020000        2.630000        5.540000
  H16        5.780000        2.380000        4.800000
  H17        4.160000        1.960000        5.470000
  C18        4.530000        4.080000        5.420001
  H19        5.270000        4.860000        5.630000
  H20        4.320000        4.210001        4.360000
  C21        3.340000        4.420000        6.310000
  H22        3.130000        5.480000        6.190000
  H23        2.420000        3.920000        5.970000
  C24        3.500000        4.180000        7.870001
  O25        4.260000        4.960000        8.420001
  O26        2.910000        3.140000        8.360001
  OW         1.570000        0.550000        8.790001
  HW1        0.950000        0.320000        8.040000
  HW2        1.770000        1.530000        8.760000
29
 generated by VMD
  C1         5.140000        1.570000        8.040000
  C2         5.930000        0.990000        9.000000
  C3         7.270000        1.360000        9.000000
  C4         7.840000        2.180000        8.040000
  C5         7.010000        2.740000        7.040000
  H6         7.900000        0.980000        9.790000
  H7         4.050000        1.410000        7.930000
  H8         8.900001        2.390000        8.130000
  H9         7.310000        3.470000        6.300001
  C10        5.330000        0.050000       10.000000
  H11        4.860000       -0.790000        9.490001
  H12        6.110000       -0.260000       10.700001
  H13        4.500000        0.520000       10.530001
  N14        5.660000        2.470000        7.110000
  C15        4.880000        2.730000        5.830000
  H16        5.520000        2.300000        5.060000
  H17        3.980000        2.130000        5.940001
  C18        4.560000        4.240000        5.530000
  H19        5.440001        4.800000        5.860000
  H20        4.460000        4.360000        4.440001
  C21        3.300000        4.740000        6.250000
  H22        3.350000        5.830000        6.240000
  H23        2.430000        4.410000        5.690000
  C24        3.220000        4.270000        7.780001
  O25        4.120000        4.620000        8.530001
  O26        2.500000        3.240000        7.900000
  OW         1.770000        0.750000        8.630000
  HW1        0.850000        0.770000        9.030001
  HW2        2.110000        1.680000        8.520000
29
 generated by VMD
  C1         5.260000        1.330000        7.270000
  C2         5.560000        0.770000        8.530001
  C3         6.640000        1.320000        9.250001
  C4         7.370000        2.400000        8.740000
  C5         7.000000        3.010000        7.540000
  H6         6.950001        0.820000       10.160000
  H7         4.490000        0.960000        6.570000
  H8         8.280001        2.730000        9.220000
  H9         7.660000        3.730000        7.080000
  C10        4.750000       -0.380000        9.020000
  H11        3.670000       -0.210000        9.090000
  H12        4.970000       -1.280000        8.450001
  H13        4.880000       -0.580000       10.090000
  N14        5.880000        2.490000        6.870000
  C15        5.410000        3.180000        5.580000
  H16        6.310000        3.270000        4.980000
  H17        4.710000        2.490000        5.100000
  C18        4.730000        4.580000        5.820000
  H19        5.250000        5.110001        6.620001
  H20        4.860000        5.200000        4.930000
  C21        3.260000        4.480000        6.180000
  H22        2.830000        5.470000        6.250000
  H23        2.650000        3.990000        5.420001
  C24        3.020000        3.760000        7.560000
  O25        3.790000        4.090000        8.470000
  O26        2.540000        2.630000        7.390000
  OW         2.900000        2.050000       10.210000
  HW1        3.150000        3.020000       10.240001
  HW2        2.700000        1.790000        9.260000
29
 generated by VMD
  C1         5.270000        1.580000        7.920001
  C2         6.040000        1.390000        9.100000
  C3         7.360001        1.840000        9.030001
  C4         7.900000        2.380000        7.840000
  C5         7.060000        2.650000        6.780000
  H6         7.960001        1.670000        9.920000
  H7         4.200000        1.270000        7.850000
  H8         8.930000        2.700000        7.780001
  H9         7.450001        3.240000        5.960000
  C10        5.410000        0.730000       10.320001
  H11        5.020000        1.480000       11.010000
  H12        4.570000        0.100000       10.030001
  H13        6.160001        0.110000       10.820000
  N14        5.780000        2.170000        6.830000
  C15        4.890000        2.550000        5.790000
  H16        5.360000        2.360000        4.830000
  H17        4.060000        1.840000        5.790000
  C18        4.400000        4.010000        5.810000
  H19        5.180000        4.670000        6.190000
  H20        4.170000        4.260000        4.770000
  C21        3.040000        4.300000        6.690001
  H22        2.670000        5.310000        6.520000
  H23        2.210000        3.680000        6.310000
  C24        3.090000        4.070000        8.270000
  O25        4.210001        4.370000        8.720000
  O26        2.350000        3.110000        8.710001
  OW         1.830000        0.870000        7.190001
  HW1        0.850000        0.790000        7.000000
  HW2        2.000000        1.700000        7.710000
29
 generated by VMD
  C1         5.240001        1.530000        7.730000
  C2         5.740000        1.440000        9.040001
  C3         7.000000        2.030000        9.370001
  C4         7.690001        2.740000        8.390000
  C5         7.170000        2.850000        7.080000
  H6         7.320001        2.150000       10.400001
  H7         4.280000        1.110000        7.360001
  H8         8.550000        3.320000        8.700001
  H9         7.640000        3.490000        6.350000
  C10        4.930000        0.630000       10.000000
  H11        4.640000       -0.380000        9.690001
  H12        5.500000        0.590000       10.930000
  H13        4.030000        1.220000       10.190001
  N14        5.940001        2.330000        6.830000
  C15        5.170000        2.770000        5.650000
  H16        5.820000        2.600000        4.790000
  H17        4.250000        2.180000        5.600000
  C18        4.760000        4.240000        5.730000
  H19        5.490000        4.760000        6.340000
  H20        4.780000        4.660000        4.720000
  C21        3.300000        4.380000        6.360001
  H22        3.020000        5.430000        6.280000
  H23        2.550000        3.860000        5.740000
  C24        3.170000        3.900000        7.840000
  O25        4.020000        4.230000        8.670000
  O26        2.430000        2.840000        7.970000
  OW         1.980000        0.300000        8.200001
  HW1        1.150000        0.080000        7.690001
  HW2        2.070000        1.290000        8.290001
29
 generated by VMD
  C1         5.190001        1.490000        7.730000
  C2         5.630000        1.310000        9.040001
  C3         6.840000        1.890000        9.370001
  C4         7.500000        2.810000        8.520000
  C5         6.970000        3.050000        7.260000
  H6         7.200000        1.610000       10.350000
  H7         4.180000        1.210000        7.360001
  H8         8.420001        3.240000        8.880001
  H9         7.230000        3.860000        6.600000
  C10        4.860000        0.490000        9.980000
  H11        5.360000        0.480000       10.950001
  H12        3.940000        1.000000       10.250001
  H13        4.600000       -0.470000        9.530001
  N14        5.880000        2.360000        6.850000
  C15        5.260000        2.600000        5.470000
  H16        6.120000        2.470000        4.820000
  H17        4.460000        1.870000        5.390000
  C18        4.540000        4.000000        5.470000
  H19        5.260000        4.770000        5.750000
  H20        4.240000        4.210001        4.440001
  C21        3.230000        4.120000        6.280000
  H22        2.770000        5.080000        6.040000
  H23        2.500000        3.350000        6.000000
  C24        3.410000        3.990000        7.860000
  O25        4.350000        4.550000        8.420001
  O26        2.900000        2.890000        8.320000
  OW         1.910000        0.580000        8.240001
  HW1        0.920000        0.540000        8.370000
  HW2        2.240000        1.510000        8.410000
29
 generated by VMD
  C1         5.240001        1.320000        7.780001
  C2         5.730000        1.070000        9.050000
  C3         6.790000        1.830000        9.560000
  C4         7.300000        2.930000        8.760000
  C5         6.820001        3.090000        7.460001
  H6         7.100000        1.600000       10.570001
  H7         4.410000        0.790000        7.270000
  H8         8.070001        3.590000        9.130000
  H9         7.110000        3.940000        6.880000
  C10        5.110001       -0.050000        9.860001
  H11        4.030000        0.080000        9.980000
  H12        5.250000       -1.030000        9.400001
  H13        5.510000       -0.110000       10.870000
  N14        5.770000        2.350000        7.040000
  C15        5.270000        2.560000        5.600000
  H16        6.140000        2.490000        4.950000
  H17        4.570000        1.780000        5.310000
  C18        4.420000        3.870000        5.360000
  H19        5.140000        4.690000        5.480000
  H20        4.210001        3.800000        4.290000
  C21        3.130000        3.970000        6.140000
  H22        2.510000        4.800000        5.790000
  H23        2.590000        3.030000        5.970000
  C24        3.370000        4.190001        7.680000
  O25        4.150000        5.090000        7.970000
  O26        3.170000        3.160000        8.410000
  OW         2.050000        0.690000        8.250000
  HW1        1.060000        0.860000        8.290001
  HW2        2.540000        1.520000        8.510000
29
 generated by VMD
  C1         5.150001        1.560000        7.940001
  C2         5.790000        1.150000        9.160001
  C3         7.080000        1.610000        9.370001
  C4         7.740001        2.490000        8.440001
  C5         7.100000        2.800000        7.270000
  H6         7.620000        1.240000       10.240001
  H7         4.100000        1.360000        7.640000
  H8         8.740000        2.870000        8.620001
  H9         7.550001        3.420000        6.510000
  C10        5.050000        0.170000       10.090000
  H11        3.980000        0.390000       10.030001
  H12        5.130000       -0.840000        9.700001
  H13        5.450000        0.190000       11.110001
  N14        5.870000        2.290000        7.000000
  C15        5.230000        2.590000        5.670000
  H16        5.990000        2.390000        4.910000
  H17        4.400000        1.930000        5.440001
  C18        4.620000        4.020000        5.550000
  H19        5.260000        4.800000        5.970000
  H20        4.540000        4.250000        4.480000
  C21        3.290000        4.190001        6.180000
  H22        2.790000        5.110001        5.860000
  H23        2.560000        3.430000        5.870000
  C24        3.270000        4.180000        7.680000
  O25        3.870000        5.100000        8.240001
  O26        2.720000        3.140000        8.200001
  OW         1.810000        0.700000        8.140000
  HW1        0.830000        0.500000        8.100000
  HW2        1.940000        1.690000        8.250000
29
 generated by VMD
  C1         5.170000        1.350000        7.960001
  C2         5.950000        1.150000        9.110001
  C3         7.290000        1.690000        9.180000
  C4         7.840000        2.370000        8.080000
  C5         7.040000        2.460000        6.910000
  H6         7.800000        1.580000       10.130000
  H7         4.100000        1.090000        7.870001
  H8         8.800000        2.870000        8.090000
  H9         7.370000        3.020000        6.050000
  C10        5.260000        0.570000       10.310000
  H11        4.720000        1.340000       10.870000
  H12        4.470000       -0.100000        9.960001
  H13        5.960000       -0.030000       10.900001
  N14        5.690000        2.140000        6.920000
  C15        4.730000        2.570000        5.860000
  H16        5.180000        2.250000        4.920000
  H17        3.760000        2.110000        6.040000
  C18        4.530000        4.100000        5.800000
  H19        5.420001        4.610000        6.200000
  H20        4.380000        4.370000        4.750000
  C21        3.330000        4.570000        6.570000
  H22        3.250000        5.660000        6.480000
  H23        2.460000        4.230000        6.000000
  C24        3.280000        4.160000        8.110001
  O25        4.270000        4.460000        8.750001
  O26        2.460000        3.210000        8.310000
  OW         1.780000        1.020000        7.150001
  HW1        0.830000        0.820000        7.400000
  HW2        2.040000        1.920000        7.500000
29
 generated by VMD
  C1         5.400000        1.460000        7.580000
  C2         5.690000        1.060000        8.870000
  C3         6.510000        1.900000        9.680000
  C4         7.130001        2.990000        9.160001
  C5         6.880000        3.330000        7.840000
  H6         6.670001        1.660000       10.720000
  H7         4.850000        0.880000        6.810000
  H8         7.820001        3.570000        9.750000
  H9         7.320001        4.200000        7.370000
  C10        5.110001       -0.270000        9.370001
  H11        4.340000       -0.540000        8.640000
  H12        5.890000       -1.030000        9.400001
  H13        4.680000       -0.140000       10.360001
  N14        6.030001        2.580000        7.090001
  C15        5.750000        3.030000        5.700001
  H16        6.730000        3.220000        5.270000
  H17        5.320000        2.200000        5.140000
  C18        4.860000        4.310000        5.540000
  H19        5.280000        5.040000        6.240000
  H20        5.120000        4.700000        4.560000
  C21        3.420000        4.020000        5.730000
  H22        2.830000        4.850000        5.320000
  H23        3.170000        3.130000        5.140000
  C24        3.000000        3.670000        7.210000
  O25        3.710000        4.150000        8.080000
  O26        2.500000        2.450000        7.290000
  OW         2.240000        1.360000        9.600000
  HW1        2.430000        2.120000       10.220001
  HW2        2.280000        1.690000        8.650001
29
 generated by VMD
  C1         5.260000        1.390000        7.740001
  C2         5.800000        1.190000        9.070001
  C3         6.930000        1.920000        9.430000
  C4         7.440000        2.900000        8.590000
  C5         6.820001        3.100000        7.350000
  H6         7.440000        1.760000       10.370001
  H7         4.330000        0.940000        7.340000
  H8         8.300000        3.540000        8.730000
  H9         7.230000        3.800000        6.630001
  C10        5.140000        0.180000        9.920000
  H11        4.250000        0.620000       10.360001
  H12        4.820000       -0.630000        9.260000
  H13        5.790000       -0.270000       10.680000
  N14        5.750000        2.380000        6.920000
  C15        5.190001        2.640000        5.580000
  H16        5.980000        2.540000        4.840000
  H17        4.430000        1.870000        5.440001
  C18        4.480000        4.070000        5.530000
  H19        5.240001        4.790000        5.870000
  H20        4.130000        4.390000        4.540000
  C21        3.240000        4.320000        6.400001
  H22        2.850000        5.340000        6.360001
  H23        2.400000        3.750000        5.980000
  C24        3.360000        3.970000        7.900000
  O25        4.290000        4.520000        8.470000
  O26        2.690000        3.020000        8.330001
  OW         2.020000        0.540000        7.750000
  HW1        1.260000        0.200000        8.310000
  HW2        2.260000        1.470000        8.030001
29
 generated by VMD
  C1         5.210000        1.400000        7.710000
  C2         5.850000        1.030000        8.890000
  C3         7.170000        1.570000        9.120001
  C4         7.760000        2.470000        8.160001
  C5         6.950001        2.860000        7.050000
  H6         7.650001        1.390000       10.070001
  H7         4.220000        0.990000        7.420001
  H8         8.690001        3.000000        8.280001
  H9         7.310000        3.650000        6.410000
  C10        5.110001        0.260000        9.950001
  H11        4.310000        0.890000       10.330000
  H12        4.800000       -0.720000        9.580001
  H13        5.770000        0.060000       10.790000
  N14        5.680000        2.360000        6.900001
  C15        4.790000        2.840000        5.770000
  H16        5.340000        2.800000        4.820000
  H17        3.970000        2.120000        5.780000
  C18        4.320000        4.330000        5.850000
  H19        5.180000        4.930000        6.170001
  H20        4.110000        4.660000        4.830000
  C21        3.050000        4.540000        6.770000
  H22        2.730000        5.580000        6.770000
  H23        2.170000        3.950000        6.500000
  C24        3.360000        4.100000        8.200001
  O25        4.430000        4.470000        8.720000
  O26        2.810000        2.980000        8.470000
  OW         1.980000        0.760000        7.410001
  HW1        1.020000        0.810000        7.110000
  HW2        2.200000        1.560000        7.960001
29
 generated by VMD
  C1         5.300000        1.490000        7.740001
  C2         5.850000        1.160000        8.970000
  C3         7.020000        1.760000        9.360001
  C4         7.650001        2.720000        8.500000
  C5         7.130001        2.990000        7.270000
  H6         7.430000        1.510000       10.330000
  H7         4.270000        1.260000        7.400000
  H8         8.530001        3.280000        8.790001
  H9         7.610001        3.580000        6.500000
  C10        5.100000        0.170000        9.800000
  H11        5.730000       -0.140000       10.640000
  H12        4.140000        0.570000       10.130000
  H13        4.910000       -0.700000        9.160001
  N14        5.960000        2.410000        6.920000
  C15        5.190001        2.860000        5.690000
  H16        5.790000        2.560000        4.830000
  H17        4.310000        2.230000        5.630000
  C18        4.720000        4.350000        5.710001
  H19        5.490000        4.900000        6.260000
  H20        4.720000        4.810000        4.720000
  C21        3.320000        4.540000        6.350000
  H22        2.960000        5.560000        6.510000
  H23        2.570000        4.080000        5.700001
  C24        3.140000        3.990000        7.810000
  O25        3.990000        4.400000        8.580000
  O26        2.480000        2.880000        7.850000
  OW         1.720000        0.450000        8.270000
  HW1        1.140000        0.450000        9.090000
  HW2        2.000000        1.380000        8.070001
29
 generated by VMD
  C1         5.330000        1.540000        7.890000
  C2         5.990000        1.090000        9.040001
  C3         7.170000        1.790000        9.410001
  C4         7.670000        2.880000        8.680000
  C5         6.900001        3.310000        7.630000
  H6         7.670000        1.490000       10.320001
  H7         4.320000        1.200000        7.580000
  H8         8.540000        3.440000        9.000000
  H9         7.120000        4.230000        7.100000
  C10        5.340000        0.020000        9.890000
  H11        6.110000       -0.520000       10.430001
  H12        4.480000        0.410000       10.450001
  H13        4.820000       -0.660000        9.210001
  N14        5.820000        2.630000        7.170000
  C15        5.260000        2.880000        5.710001
  H16        6.070001        2.720000        5.000000
  H17        4.500000        2.140000        5.430000
  C18        4.730000        4.330000        5.490000
  H19        5.430000        5.030000        5.960000
  H20        4.720000        4.490000        4.400000
  C21        3.350000        4.640000        6.130000
  H22        3.220000        5.700001        6.390000
  H23        2.550000        4.480000        5.400000
  C24        2.990000        3.850000        7.440000
  O25        3.610000        4.240000        8.400001
  O26        2.500000        2.650000        7.330000
  OW         1.900000        0.380000        8.660001
  HW1        1.320000        0.540000        9.460000
  HW2        2.020000        1.240000        8.150001
29
 generated by VMD
  C1         5.450000        1.410000        7.540000
  C2         5.920000        0.750000        8.640000
  C3         6.590000        1.500000        9.630001
  C4         6.830000        2.860000        9.460000
  C5         6.480000        3.440000        8.260000
  H6         6.850000        0.960000       10.540000
  H7         4.790000        0.990000        6.760001
  H8         7.190001        3.530000       10.230000
  H9         6.490001        4.500000        8.060000
  C10        5.550000       -0.740000        8.890000
  H11        5.250000       -1.180000        7.930000
  H12        6.390000       -1.340000        9.240000
  H13        4.650001       -0.880000        9.490001
  N14        5.820000        2.720000        7.310000
  C15        5.630000        3.160000        5.810000
  H16        6.590000        3.190000        5.290000
  H17        5.080000        2.350000        5.330000
  C18        4.850000        4.460000        5.540000
  H19        5.240001        5.250000        6.190000
  H20        5.180000        4.910000        4.590000
  C21        3.340000        4.250000        5.680000
  H22        2.800000        5.200000        5.620000
  H23        2.950000        3.650000        4.850000
  C24        2.890000        3.660000        7.100000
  O25        3.020000        4.380000        8.110001
  O26        2.650000        2.360000        7.130001
  OW         3.080000        1.670000        9.660000
  HW1        3.060000        2.530000       10.160000
  HW2        2.690000        1.810000        8.750001
29
 generated by VMD
  C1         5.460000        1.530000        7.730000
  C2         5.860000        1.080000        8.980000
  C3         6.840000        1.760000        9.660000
  C4         7.460001        2.880000        9.060000
  C5         7.040000        3.280000        7.820001
  H6         7.200000        1.320000       10.580001
  H7         4.540000        1.140000        7.240000
  H8         8.290001        3.430000        9.470000
  H9         7.510000        4.050000        7.230000
  C10        5.120000       -0.100000        9.640000
  H11        4.140000       -0.280000        9.180000
  H12        5.720000       -1.000000        9.670001
  H13        4.790000        0.190000       10.650001
  N14        6.040000        2.640000        7.160000
  C15        5.610001        3.010000        5.740000
  H16        6.500000        2.960000        5.130000
  H17        4.970000        2.180000        5.420001
  C18        4.900000        4.360000        5.590000
  H19        5.370000        5.130000        6.220000
  H20        5.040000        4.740000        4.580000
  C21        3.410000        4.240000        5.870000
  H22        2.850000        5.120000        5.550000
  H23        3.060000        3.400000        5.260000
  C24        2.980000        3.860000        7.330000
  O25        3.480000        4.540000        8.200001
  O26        2.660000        2.610000        7.430000
  OW         1.710000        0.520000        8.710001
  HW1        0.870000        0.870000        9.130000
  HW2        2.160000        1.250000        8.200001
29
 generated by VMD
  C1         5.550000        1.480000        7.190001
  C2         5.640000        0.590000        8.310000
  C3         6.270000        1.100000        9.510000
  C4         6.650000        2.420000        9.590000
  C5         6.450000        3.250000        8.490001
  H6         6.340000        0.480000       10.400001
  H7         5.040000        1.170000        6.260000
  H8         7.140000        2.820000       10.470000
  H9         6.720000        4.290000        8.570001
  C10        5.130000       -0.830000        8.170000
  H11        5.460000       -1.400000        7.290000
  H12        5.470000       -1.420000        9.020000
  H13        4.040000       -0.750000        8.230000
  N14        5.950000        2.790000        7.330000
  C15        5.860000        3.700000        6.160001
  H16        6.840000        4.180000        6.080000
  H17        5.650000        3.100000        5.280000
  C18        4.650001        4.710000        6.270000
  H19        4.590000        5.230000        7.230000
  H20        4.850000        5.470000        5.510000
  C21        3.290000        4.120000        6.030001
  H22        2.560000        4.920000        6.170001
  H23        3.200000        3.850000        4.970000
  C24        2.840000        2.900000        6.930000
  O25        3.090000        2.870000        8.170000
  O26        2.500000        1.860000        6.240000
  OW         3.980000        4.300000       10.220001
  HW1        3.680000        3.660000        9.520000
  HW2        3.210000        4.520000       10.820000
29
 generated by VMD
  C1         5.240001        1.770000        8.020000
  C2         5.890000        1.390000        9.190001
  C3         7.210000        1.770000        9.410001
  C4         7.900000        2.510000        8.440001
  C5         7.200000        2.910000        7.310000
  H6         7.680000        1.570000       10.370001
  H7         4.170000        1.530000        7.830000
  H8         8.940001        2.800000        8.510000
  H9         7.660000        3.460000        6.510000
  C10        5.090000        0.720000       10.260000
  H11        4.600000       -0.200000        9.940001
  H12        5.760000        0.370000       11.040001
  H13        4.300000        1.400000       10.610001
  N14        5.910000        2.550000        7.060000
  C15        5.230000        2.880000        5.750000
  H16        5.870000        2.610000        4.910000
  H17        4.340000        2.260000        5.790000
  C18        4.780000        4.300000        5.670000
  H19        5.470000        4.920000        6.260000
  H20        4.810000        4.600000        4.620000
  C21        3.260000        4.570000        6.180000
  H22        3.020000        5.630000        6.170001
  H23        2.560000        4.200000        5.420001
  C24        2.850000        3.910000        7.540000
  O25        3.490000        4.040000        8.590000
  O26        2.160000        2.790000        7.350000
  OW         2.340000        0.210000        8.180000
  HW1        1.500000       -0.260000        8.470000
  HW2        2.120000        1.140000        7.910000
29
 generated by VMD
  C1         5.530000        1.490000        7.480000
  C2         5.760000        1.340000        8.840000
  C3         6.800000        2.130000        9.390000
  C4         7.430000        3.120000        8.570001
  C5         7.000000        3.280000        7.280001
  H6         7.060000        2.040000       10.440001
  H7         4.750000        1.000000        6.870000
  H8         8.260000        3.690000        8.940001
  H9         7.400000        4.020000        6.590000
  C10        4.960000        0.370000        9.650001
  H11        4.210001       -0.130000        9.040001
  H12        5.540000       -0.400000       10.150002
  H13        4.350000        0.890000       10.400001
  N14        6.050000        2.490000        6.750000
  C15        5.280000        2.960000        5.520000
  H16        6.020000        2.950000        4.720000
  H17        4.560000        2.180000        5.270000
  C18        4.600000        4.380000        5.700001
  H19        5.340000        4.990000        6.210001
  H20        4.330000        4.740000        4.700000
  C21        3.310000        4.340000        6.540000
  H22        2.830000        5.320000        6.540000
  H23        2.580000        3.750000        5.970000
  C24        3.320000        3.700000        7.930000
  O25        3.990000        4.200000        8.810000
  O26        2.800000        2.520000        8.020000
  OW         1.710000        0.070000        8.300000
  HW1        1.070000        0.260000        9.040001
  HW2        2.210000        0.910000        8.070001
29
 generated by VMD
  C1         5.300000        1.890000        8.230000
  C2         6.140000        1.480000        9.260000
  C3         7.540000        1.550000        9.150001
  C4         8.040000        2.060000        7.960001
  C5         7.240000        2.560000        6.960001
  H6         8.190001        1.350000       10.000000
  H7         4.200000        1.810000        8.210000
  H8         9.110001        2.080000        7.810000
  H9         7.560000        2.920000        6.000000
  C10        5.570001        0.820000       10.460000
  H11        6.170001        0.900000       11.370001
  H12        4.610000        1.280000       10.690001
  H13        5.470000       -0.270000       10.400001
  N14        5.890000        2.430000        7.070000
  C15        5.070000        2.960000        5.960000
  H16        5.580000        2.900000        5.000000
  H17        4.140000        2.430000        5.750000
  C18        4.670000        4.480000        6.150000
  H19        5.280000        4.870000        6.980000
  H20        4.920000        5.000000        5.220000
  C21        3.190000        4.610000        6.530001
  H22        2.820000        5.640000        6.520000
  H23        2.590000        4.270000        5.670000
  C24        2.640000        3.880000        7.810000
  O25        3.060000        4.320000        8.850000
  O26        1.930000        2.820000        7.580000
  OW         2.350000        0.320000        7.160000
  HW1        1.630000       -0.260000        7.530000
  HW2        2.090000        1.280000        7.240000
