17
 generated by VMD
 C         7.377000       16.153999       13.647000
 C         6.402000       15.293000       14.148000
 C         6.425000       15.001000       11.965000
 N         7.388000       15.966000       12.262000
 H         7.981000       16.441000       11.621000
 H         8.024000       16.844000       14.143000
 H         6.082000       15.132000       15.159000
 H         6.206000       14.650000       10.964000
 N         5.829000       14.593000       13.096000
 P         3.470000       12.466000       11.253000
 O         4.499000       12.838000       10.294000
 O         3.790000       12.593000       12.802000
 H         4.506000       13.353000       12.967000
 O         2.132000       13.291000       11.008000
 H         1.424000       12.974000       11.683000
 O         2.920000       10.962000       11.186000
 H         3.537000       10.371000       11.751000
