33
 generated by VMD
 C         4.364000       12.693000       10.941000
 H         4.116000       12.155000       10.014000
 H         5.255000       13.313000       10.767000
 H         4.635000       11.914000       11.701000
 C         2.835000       14.524000       10.384000
 H         2.585000       14.038000        9.426000
 H         1.955000       15.114000       10.699000
 H         3.662000       15.229000       10.203000
 C         2.042000       12.590000       11.661000
 H         1.209000       13.089000       12.196000
 H         1.671000       12.159000       10.723000
 H         2.335000       11.752000       12.339000
 C         3.626000       14.225000       12.709000
 H         4.525000       14.836000       12.494000
 H         3.951000       13.429000       13.438000
 C         2.522000       15.091000       13.335000
 H         1.513000       14.778000       12.990000
 H         2.639000       16.149000       13.038000
 C         2.549000       14.963000       14.859000
 H         1.697000       15.492000       15.320000
 H         3.461000       15.406000       15.294000
 N         3.201000       13.513000       11.431000
 C         2.463000       13.476000       15.262000
 O         1.780000       12.745000       14.506000
 O         3.117000       13.115000       16.243999
 P         4.109000       10.082000       14.649000
 O         4.653000        8.746000       14.444000
 O         4.304000       10.645000       16.108000
 H         3.808000       11.585000       16.204000
 O         4.831000       11.210000       13.705000
 H         5.812000       11.234000       13.920000
 O         2.614000       10.254000       14.194000
 H         2.252000       11.247000       14.453000
