28
 generated by VMD
  C1        11.960001       14.270000        9.310000
  C2        11.660000       12.960000        9.850000
  C3        10.810001       12.880001       10.910001
  C4        10.160000       14.060000       11.380000
  C5        10.570001       15.270000       10.840001
  N6        11.440001       15.380001        9.790000
  H7        10.500001       11.920000       11.310000
  H8        12.670001       14.300001        8.490001
  H9        12.210001       12.120000        9.420000
  H10        9.610001       13.990001       12.310000
  H11       10.360001       16.200001       11.370001
  P1        13.730000       17.750000       11.950001
  O2        14.050001       16.340000       11.630001
  O3        12.290001       17.940001       12.450000
  H4        12.210001       17.300001       13.170000
  O5        14.530001       18.500002       12.970000
  H6        14.250001       19.380001       12.720001
  O7        13.940001       18.770000       10.790000
  H8        13.440001       18.300001       10.110001
  OW        13.380001       13.980001       13.090000
  HW1       14.170000       13.670001       13.620001
  HW2       13.680000       14.670001       12.430000
  OW        12.160001       15.990001       14.250001
  HW1       12.650002       15.170001       13.960000
  HW2       11.370001       15.720000       14.810000
  OW        12.800001       17.650002        8.820001
  HW1       12.740001       17.760002        7.820001
  HW2       12.280001       16.830002        9.090000
28
 generated by VMD
  C1        10.780001       14.670001        8.780001
  C2         9.950001       14.470000        9.860001
  C3        10.570001       14.000001       11.030001
  C4        11.940001       13.650000       10.990001
  C5        12.660000       13.900002        9.830000
  N6        12.100000       14.450001        8.710001
  H7        10.100000       13.810000       11.980000
  H8        10.400001       15.050001        7.840000
  H9         8.920000       14.800000        9.800000
  H10       12.380000       13.200001       11.870001
  H11       13.690001       13.580000        9.720000
  P1        13.370000       17.620001       12.060001
  O2        14.110001       16.350000       11.990000
  O3        11.820001       17.390001       12.130001
  H4        11.680001       16.910002       12.960000
  O5        13.520001       18.490002       13.320000
  H6        12.970000       19.250000       13.080001
  O7        13.580000       18.670002       10.930000
  H8        13.280001       18.170000       10.150002
  OW        14.480000       14.970001       14.330001
  HW1       15.450001       15.040001       14.560001
  HW2       14.340000       15.240001       13.370000
  OW        11.890000       16.049999       14.510001
  HW1       12.780001       15.610001       14.480000
  HW2       11.630001       16.220001       15.470000
  OW        13.170000       17.190001        8.790001
  HW1       14.060000       17.080000        8.350000
  HW2       12.670001       16.320002        8.730000
28
 generated by VMD
  C1        10.860001       15.140000       10.180000
  C2         9.930000       14.150001       10.470000
  C3        10.390000       12.830001       10.670000
  C4        11.710000       12.510000       10.410000
  C5        12.540001       13.600000        9.990001
  N6        12.120000       14.900002        9.940001
  H7         9.700001       12.030001       10.900001
  H8        10.520000       16.160000       10.080000
  H9         8.910000       14.420000       10.720000
  H10       12.010001       11.480000       10.510000
  H11       13.580000       13.470001        9.740001
  P1        13.580000       17.960001       11.990000
  O2        14.250001       16.639999       12.060001
  O3        12.000000       17.850000       11.970000
  H4        11.830001       17.300001       12.740001
  O5        13.680000       19.120001       13.010001
  H6        13.160001       19.790001       12.550001
  O7        13.940001       18.830002       10.730000
  H8        13.860001       18.160002       10.040001
  OW        13.740001       14.670001       13.630000
  HW1       14.220000       13.870001       13.270000
  HW2       13.900002       15.460001       13.030001
  OW        11.380000       16.130001       14.120001
  HW1       12.110001       15.470000       13.990001
  HW2       11.250000       16.290001       15.100001
  OW        13.660001       16.860001        8.760000
  HW1       13.900002       16.630001        7.810000
  HW2       13.160001       16.100002        9.170000
28
 generated by VMD
  C1        11.670000       14.660001       10.370001
  C2        10.670000       13.670001       10.640000
  C3        10.490000       12.660000        9.660000
  C4        11.290001       12.610001        8.520000
  C5        12.280001       13.630000        8.390000
  N6        12.440001       14.660001        9.280001
  H7         9.760000       11.870001        9.760000
  H8        11.910001       15.390000       11.140001
  H9        10.080000       13.780001       11.540001
  H10       11.240001       11.810001        7.800000
  H11       13.030001       13.380001        7.650001
  P1        13.710001       17.920000       12.580000
  O2        13.680000       16.530001       13.080001
  O3        12.450000       18.280001       11.690001
  H4        11.710000       18.040001       12.260000
  O5        13.690001       19.070000       13.590001
  H6        14.630001       19.000000       13.800001
  O7        15.000001       18.320002       11.760000
  H8        14.890001       17.630001       11.090001
  OW        11.910001       14.860001       13.840000
  HW1       12.140001       13.890000       13.890000
  HW2       12.730000       15.380001       13.580000
  OW        10.530001       17.280001       13.360001
  HW1       10.890001       16.420000       13.720001
  HW2        9.650001       17.480000       13.790001
  OW        14.230001       16.760002        9.580001
  HW1       13.790001       17.370001        8.930000
  HW2       13.810000       15.850000        9.530001
28
 generated by VMD
  C1        11.220001       14.110001        7.700000
  C2         9.930000       13.740001        7.530000
  C3         8.870000       14.260001        8.280001
  C4         9.250001       15.320001        9.190001
  C5        10.610001       15.760001        9.200000
  N6        11.600000       15.090000        8.580000
  H7         7.860000       13.880000        8.230000
  H8        12.040001       13.520001        7.300000
  H9         9.770000       12.870001        6.900001
  H10        8.460000       15.710001        9.810000
  H11       10.900001       16.630001        9.790000
  P1        13.840000       17.360001       12.760000
  O2        15.030001       16.530001       12.890000
  O3        12.410001       16.650002       12.850000
  H4        12.370001       16.130001       13.660001
  O5        13.540001       18.440001       13.790001
  H6        12.680000       18.670002       13.420000
  O7        13.770000       18.170000       11.470001
  H8        13.950001       17.470001       10.830001
  OW        15.340000       15.740002       15.310000
  HW1       16.060001       16.170002       15.860001
  HW2       15.530001       15.910001       14.340000
  OW        12.650002       15.400001       15.350000
  HW1       13.630000       15.500001       15.500001
  HW2       12.190001       15.240001       16.230000
  OW        13.960000       16.300001        9.620001
  HW1       13.190001       16.070002        9.030001
  HW2       14.390000       15.460001        9.970000
28
 generated by VMD
  C1        10.870000       14.080001       11.240001
  C2         9.580001       14.480000       11.450001
  C3         8.970000       15.300001       10.520000
  C4         9.610001       15.550001        9.290000
  C5        10.960001       15.110001        9.130000
  N6        11.530000       14.370001       10.090000
  H7         7.960001       15.660001       10.670000
  H8        11.330000       13.410001       11.970000
  H9         9.130000       14.170000       12.380000
  H10        9.150001       16.110001        8.490001
  H11       11.580001       15.260000        8.240001
  P1        14.290000       17.460001       11.800001
  O2        14.470000       16.430000       12.780001
  O3        12.740001       17.580002       11.410000
  H4        12.350000       17.290001       12.240001
  O5        14.530001       18.950001       12.180000
  H6        14.420000       19.390001       11.330000
  O7        15.160000       17.440001       10.490000
  H8        14.940001       16.520000       10.290001
  OW        13.230000       14.790001       14.360001
  HW1       13.540001       13.910000       14.720001
  HW2       13.970001       15.220001       13.850001
  OW        11.460000       16.600000       13.640001
  HW1       12.070000       15.870001       13.950001
  HW2       10.650001       16.650002       14.230001
  OW        14.410001       14.930000        9.630001
  HW1       13.590001       14.360001        9.640000
  HW2       15.140000       14.440001        9.130000
28
 generated by VMD
  C1        10.360001       14.100000        9.390000
  C2         9.440001       13.590001       10.320001
  C3         9.920000       13.110001       11.600000
  C4        11.250000       13.220000       11.860001
  C5        12.110001       13.670001       10.810001
  N6        11.660000       14.180001        9.600000
  H7         9.140000       12.760000       12.270001
  H8        10.000000       14.510001        8.450001
  H9         8.380001       13.570002       10.100000
  H10       11.780001       12.900001       12.750001
  H11       13.170000       13.860001       10.920000
  P1        14.180001       17.350002       12.000000
  O2        13.150001       16.430000       12.480000
  O3        13.660001       18.520000       11.090001
  H4        12.890000       18.820002       11.590000
  O5        15.030001       18.190001       12.980001
  H6        15.780001       18.410000       12.420001
  O7        15.370001       16.710001       11.240001
  H8        14.910001       16.340000       10.480001
  OW        10.800000       16.930000       13.650000
  HW1       10.180000       16.170002       13.470001
  HW2       11.700001       16.710001       13.290001
  OW        11.610001       19.420002       12.580000
  HW1       11.220001       18.600002       12.990000
  HW2       11.160001       20.230000       12.950001
  OW        14.290000       15.670000        8.900001
  HW1       14.540001       15.300001        8.000000
  HW2       13.360001       15.400001        9.130000
28
 generated by VMD
  C1        10.930000       14.320001        8.900001
  C2         9.520000       14.490002        8.990001
  C3         8.970000       15.000001       10.170001
  C4         9.890000       15.230001       11.210001
  C5        11.210001       14.950001       11.050000
  N6        11.740000       14.500000        9.950001
  H7         7.890000       15.090000       10.200001
  H8        11.380000       13.910000        8.000000
  H9         8.890000       14.230001        8.150001
  H10        9.590000       15.490000       12.220000
  H11       11.860001       15.150002       11.900001
  P1        14.300001       17.300001       11.940001
  O2        14.390000       16.080000       12.690001
  O3        12.850000       17.610001       11.490001
  H4        12.450000       17.680000       12.360001
  O5        14.710001       18.660000       12.500000
  H6        14.560001       19.230001       11.740000
  O7        15.130001       17.330000       10.610001
  H8        15.030001       16.450001       10.240001
  OW        12.600001       15.210000       14.620000
  HW1       13.070001       14.650001       15.310000
  HW2       13.230000       15.430001       13.880000
  OW        11.200000       17.410000       13.800001
  HW1       11.550001       16.610001       14.290000
  HW2       10.390000       17.760002       14.250001
  OW        14.600000       14.870001        9.590000
  HW1       15.010000       14.020000        9.240000
  HW2       13.610001       14.760000        9.650001
28
 generated by VMD
  C1        10.730000       15.130001        9.200000
  C2         9.380000       14.960001        9.650001
  C3         9.170000       14.370001       10.920000
  C4        10.290001       14.050001       11.730001
  C5        11.550001       14.240000       11.240001
  N6        11.770000       14.730000        9.990001
  H7         8.170000       14.350000       11.330000
  H8        10.970000       15.530001        8.220000
  H9         8.540000       15.300001        9.070001
  H10       10.140000       13.540001       12.680000
  H11       12.330000       13.930000       11.930000
  P1        14.250001       17.320002       11.850000
  O2        13.920001       16.010000       12.360001
  O3        13.060001       18.100000       11.210001
  H4        12.400000       17.930000       11.900001
  O5        14.750000       18.450001       12.750001
  H6        15.560001       18.610001       12.260000
  O7        15.410002       17.320002       10.780001
  H8        15.110001       16.580002       10.240001
  OW        12.250000       15.420000       14.420000
  HW1       12.730000       15.570001       15.280001
  HW2       12.910000       15.400001       13.670001
  OW        11.210001       17.330000       12.890000
  HW1       11.380000       16.800001       13.720001
  HW2       10.450001       16.920000       12.390001
  OW        14.480000       15.240001        9.280001
  HW1       14.670001       14.990001        8.330001
  HW2       13.510000       15.120001        9.470000
28
 generated by VMD
  C1        10.480001       15.400001        9.550000
  C2         9.540001       15.350000       10.559999
  C3         9.780001       14.520000       11.670000
  C4        10.980000       13.740001       11.680001
  C5        11.810001       13.810000       10.550001
  N6        11.610001       14.660001        9.490001
  H7         9.140000       14.610001       12.540001
  H8        10.240001       15.980000        8.670000
  H9         8.750001       16.090000       10.620001
  H10       11.210001       13.080001       12.510000
  H11       12.750001       13.250000       10.530001
  P1        14.190001       17.120001       11.770000
  O2        13.860001       15.900001       12.490001
  O3        12.980001       17.820000       11.110001
  H4        12.290001       17.700001       11.760000
  O5        14.750000       18.290001       12.620001
  H6        15.220001       18.790001       11.940001
  O7        15.320001       17.120001       10.730000
  H8        14.900002       16.570000       10.060000
  OW        11.920000       15.690001       14.430000
  HW1       12.210001       15.600000       15.380001
  HW2       12.720001       15.590000       13.830000
  OW        11.070000       17.850000       12.960000
  HW1       11.190001       17.090000       13.600000
  HW2       10.180000       18.270000       13.110001
  OW        14.340000       15.450001        8.920000
  HW1       14.640001       15.040001        8.060000
  HW2       13.410001       15.130001        9.130000
28
 generated by VMD
  C1        10.570001       15.060000        9.010000
  C2         9.850000       15.680000        9.990001
  C3        10.020000       15.270000       11.310000
  C4        11.060000       14.400001       11.540001
  C5        11.790000       13.840000       10.510000
  N6        11.520000       14.110001        9.210001
  H7         9.500000       15.690001       12.160001
  H8        10.420000       15.250001        7.950000
  H9         9.050000       16.340000        9.680000
  H10       11.390000       14.130001       12.530001
  H11       12.480000       13.020000       10.650001
  P1        13.970001       17.190001       11.900001
  O2        13.970001       15.920001       12.590000
  O3        12.590000       17.630001       11.340000
  H4        12.070000       17.470001       12.130001
  O5        14.330001       18.480000       12.640000
  H6        14.510001       18.960001       11.830001
  O7        15.020000       17.360001       10.680000
  H8        14.690001       16.740000       10.010000
  OW        12.720001       15.160000       14.700001
  HW1       13.260001       14.830000       15.470000
  HW2       13.310001       15.310000       13.910000
  OW        11.330000       17.350002       13.620001
  HW1       11.670000       16.480001       13.980001
  HW2       10.910001       17.870001       14.360001
  OW        14.110001       15.510001        8.940001
  HW1       14.670001       15.450001        8.110001
  HW2       13.360001       14.860001        8.890000
28
 generated by VMD
  C1        11.060000       15.100001        9.230000
  C2         9.900001       15.530001        9.830000
  C3         9.650001       15.200001       11.200000
  C4        10.540000       14.320001       11.800001
  C5        11.650001       13.870001       11.090001
  N6        11.950001       14.280001        9.840000
  H7         8.790001       15.630001       11.690001
  H8        11.250000       15.370001        8.190001
  H9         9.380000       16.310001        9.300001
  H10       10.320001       13.890000       12.780001
  H11       12.380000       13.240002       11.590000
  P1        13.940001       17.170002       11.750001
  O2        14.200001       15.810001       12.270001
  O3        12.460001       17.510000       11.320001
  H4        12.070000       17.520000       12.210001
  O5        14.300001       18.390001       12.670001
  H6        14.640001       19.020000       12.020000
  O7        14.830000       17.580002       10.500001
  H8        14.490002       16.840002        9.980000
  OW        12.750001       14.980000       14.370001
  HW1       12.950001       14.110001       14.810000
  HW2       13.400001       15.150002       13.640001
  OW        11.490001       17.410000       13.800001
  HW1       11.860001       16.520000       14.040001
  HW2       11.360001       17.960001       14.620000
  OW        14.110001       15.810001        8.710001
  HW1       14.340000       15.530001        7.770000
  HW2       13.510000       15.130001        9.120001
28
 generated by VMD
  C1        10.930000       14.870001       10.250001
  C2         9.760000       14.690001       11.040001
  C3         8.620001       15.430001       10.690001
  C4         8.620001       16.190001        9.580001
  C5         9.800000       16.270000        8.830000
  N6        10.950001       15.630001        9.140000
  H7         7.760000       15.640001       11.320001
  H8        11.900001       14.480000       10.570001
  H9         9.800000       14.060000       11.910001
  H10        7.770000       16.780001        9.230000
  H11        9.740001       16.970001        8.000000
  P1        14.670001       16.710001       12.030001
  O2        14.830000       15.530001       12.860001
  O3        13.180000       17.110001       11.780001
  H4        12.710000       17.240002       12.620001
  O5        15.200001       18.070000       12.570001
  H6        15.170001       18.560001       11.740000
  O7        15.460001       16.690001       10.660001
  H8        14.910001       16.190001       10.040001
  OW        13.150001       14.660001       15.170001
  HW1       13.560000       13.950001       15.730000
  HW2       13.720001       14.830000       14.370001
  OW        11.910001       17.160000       14.070001
  HW1       12.180000       16.330002       14.560001
  HW2       11.260000       17.680000       14.620000
  OW        13.900002       15.340000        8.690001
  HW1       14.350000       14.830000        7.960001
  HW2       12.910000       15.190001        8.640000
28
 generated by VMD
  C1        10.520000       15.760001       10.690001
  C2         9.440001       15.040001       11.230000
  C3         8.800000       14.140000       10.410000
  C4         9.210001       14.050001        9.080001
  C5        10.300001       14.790001        8.610001
  N6        10.940001       15.690001        9.400001
  H7         7.970000       13.590001       10.840001
  H8        11.140001       16.470001       11.240001
  H9         9.190001       15.190001       12.280001
  H10        8.830000       13.230000        8.480000
  H11       10.620001       14.790001        7.570000
  P1        14.740001       16.650002       12.080001
  O2        13.580000       15.720000       12.160001
  O3        14.310001       18.120001       12.330000
  H4        13.740001       18.070000       13.100000
  O5        16.000000       16.570000       13.020000
  H6        16.600000       17.200001       12.590000
  O7        15.520000       16.720001       10.710001
  H8        14.800000       16.850000       10.090000
  OW        11.580001       15.350000       14.110001
  HW1       11.690001       14.540001       14.690001
  HW2       12.200001       15.290001       13.330001
  OW        12.610001       17.940001       14.440001
  HW1       11.980000       17.190001       14.220000
  HW2       12.730000       17.990002       15.430001
  OW        13.500000       16.870001        8.990001
  HW1       13.440001       17.420002        8.150001
  HW2       12.610001       16.440001        9.160001
28
 generated by VMD
  C1        11.600000       14.200001       10.420000
  C2        10.810001       14.720001       11.430000
  C3         9.870001       15.740002       11.060000
  C4         9.720000       16.120001        9.770000
  C5        10.580001       15.580001        8.800000
  N6        11.500001       14.590001        9.120001
  H7         9.200000       16.220001       11.760000
  H8        12.310000       13.390001       10.550001
  H9        11.030001       14.400001       12.440001
  H10        8.990001       16.880001        9.490001
  H11       10.610001       15.840001        7.750000
  P1        14.000001       16.980001       11.950001
  O2        13.880000       15.540000       12.180000
  O3        12.680000       17.700001       11.790000
  H4        12.300000       17.590000       12.670001
  O5        14.740001       17.860001       12.980001
  H6        15.000001       18.600002       12.410001
  O7        14.920001       17.340000       10.740000
  H8        14.550000       16.860001       10.000000
  OW        12.780001       14.590001       14.430000
  HW1       13.510000       14.090000       14.900002
  HW2       13.090000       14.850000       13.510000
  OW        11.540001       17.080000       14.100000
  HW1       11.840000       16.150002       14.300001
  HW2       10.900001       17.390001       14.800000
  OW        14.060000       15.660001        8.920000
  HW1       14.540001       15.220001        8.160001
  HW2       13.120001       15.300001        8.960000
28
 generated by VMD
  C1         9.530001       15.460001       10.290001
  C2         9.530001       14.360001       11.180000
  C3        10.690001       13.620001       11.250000
  C4        11.660000       13.810000       10.320001
  C5        11.480000       14.820002        9.330000
  N6        10.450001       15.640001        9.360001
  H7        10.930000       12.840000       11.960001
  H8         8.610001       16.030001       10.230000
  H9         8.700001       14.230001       11.860001
  H10       12.590000       13.260001       10.290001
  H11       12.260000       15.120001        8.640000
  P1        14.200001       16.620001       11.740000
  O2        12.920000       15.940001       12.040001
  O3        14.330001       18.090002       12.230000
  H4        14.090000       18.050001       13.170000
  O5        15.560001       16.010000       12.180000
  H6        16.120001       16.450001       11.520000
  O7        14.660001       16.800001       10.240001
  H8        13.890000       17.170002        9.810000
  OW        11.560000       16.020000       14.350000
  HW1       10.710001       15.490000       14.390000
  HW2       11.960001       15.940001       13.440001
  OW        13.460001       17.940001       14.750000
  HW1       12.750001       17.240002       14.670001
  HW2       13.200001       18.600002       15.450001
  OW        12.460001       17.770000        8.830000
  HW1       12.170000       18.570002        8.300000
  HW2       11.740000       17.080000        8.820001
28
 generated by VMD
  C1        10.750000       15.760001       10.470000
  C2         9.930000       15.070001       11.340000
  C3         9.280001       13.940001       10.900001
  C4         9.490001       13.520001        9.550000
  C5        10.410000       14.240000        8.780001
  N6        11.030001       15.340000        9.220000
  H7         8.540000       13.400001       11.470001
  H8        11.160001       16.680000       10.880001
  H9         9.750000       15.570001       12.280001
  H10        9.040001       12.670001        9.050000
  H11       10.680000       13.880000        7.790000
  P1        14.340000       17.310001       11.990000
  O2        14.730000       15.890001       12.030001
  O3        12.870001       17.580002       12.270001
  H4        12.820001       17.270000       13.180000
  O5        14.940001       18.340000       12.990000
  H6        14.690001       19.170000       12.560000
  O7        14.720001       18.100000       10.730000
  H8        14.200001       17.600000       10.080000
  OW        13.050001       14.360001       13.540001
  HW1       12.560000       13.700001       12.970000
  HW2       13.760000       14.800000       13.000001
  OW        12.610001       16.790001       14.850000
  HW1       12.480000       15.860001       14.510001
  HW2       12.800001       16.760002       15.830001
  OW        13.590001       16.520000        8.940001
  HW1       14.130001       15.970001        8.300000
  HW2       12.630000       16.230000        8.900001
28
 generated by VMD
  C1        10.640000       15.480001        9.170000
  C2        10.660001       14.070001        9.430000
  C3         9.980000       13.600000       10.550001
  C4         9.300001       14.430000       11.390000
  C5         9.250001       15.790001       11.080000
  N6         9.940001       16.340000       10.010000
  H7        10.090000       12.540001       10.750000
  H8        11.070000       15.870001        8.250000
  H9        11.220001       13.420000        8.770000
  H10        8.660001       14.100000       12.200001
  H11        8.660001       16.400002       11.750001
  P1        14.660001       16.910002       11.770000
  O2        13.830000       15.710001       11.560000
  O3        14.180001       17.830002       12.910000
  H4        13.930000       17.190001       13.590001
  O5        16.230000       16.810001       12.020000
  H6        16.410000       17.750000       11.920000
  O7        14.680000       17.860001       10.540000
  H8        13.780001       18.160002       10.380001
  OW        12.280001       14.210001       13.180000
  HW1       11.430000       13.900002       12.750001
  HW2       12.920000       14.500000       12.470001
  OW        13.570002       16.020000       14.580001
  HW1       13.060001       15.320001       14.090000
  HW2       14.120001       15.590000       15.300001
  OW        12.130001       18.270000        9.810000
  HW1       11.450001       17.540001        9.890000
  HW2       11.660000       19.130001        9.580001
28
 generated by VMD
  C1         9.820001       16.780001       12.000000
  C2         9.800000       15.430001       12.310000
  C3         9.890000       14.540001       11.240001
  C4        10.090000       15.070001        9.940001
  C5        10.240001       16.430000        9.790000
  N6         9.970000       17.290001       10.770000
  H7         9.810000       13.480000       11.470001
  H8         9.650001       17.450001       12.830001
  H9         9.760000       15.110001       13.340001
  H10       10.190001       14.540001        9.000000
  H11       10.440001       16.980001        8.870000
  P1        14.430000       16.590000       11.450001
  O2        13.660001       15.830001       10.520000
  O3        13.970001       16.480001       12.930001
  H4        13.880000       15.530001       13.110001
  O5        15.870001       16.270000       11.730001
  H6        16.140001       17.110001       12.110001
  O7        14.630001       18.090002       11.110001
  H8        13.720001       18.420002       11.070000
  OW        13.050001       13.190001       10.990001
  HW1       13.430000       12.590000       10.290001
  HW2       13.010001       14.130001       10.660001
  OW        13.860001       14.010000       13.440001
  HW1       13.570002       13.600000       12.570001
  HW2       14.420000       13.350000       13.950001
  OW        12.100000       19.010002       11.120001
  HW1       11.320001       18.400000       10.990001
  HW2       11.800001       19.960001       11.040001
28
 generated by VMD
  C1        10.630001       15.430001       10.210000
  C2         9.920000       14.380001       10.790000
  C3         8.680000       14.630001       11.380000
  C4         8.100000       15.940001       11.190001
  C5         8.920000       16.860001       10.530001
  N6        10.160000       16.680000       10.090000
  H7         8.140000       13.830000       11.870001
  H8        11.550001       15.230001        9.670001
  H9        10.400001       13.420000       10.940001
  H10        7.150001       16.290001       11.580001
  H11        8.630000       17.900002       10.420000
  P1        14.840001       16.820000       11.750001
  O2        14.470000       15.610001       10.970000
  O3        13.900002       17.130001       12.980001
  H4        13.750001       16.280001       13.420000
  O5        16.240002       16.830002       12.520000
  H6        16.290001       17.710001       12.920000
  O7        14.850000       18.150002       10.960001
  H8        13.950001       18.100000       10.620001
  OW        13.410001       13.070001       11.660000
  HW1       14.160000       12.440001       11.450001
  HW2       13.550000       13.930000       11.180000
  OW        13.720001       14.700001       13.950001
  HW1       13.640001       14.030001       13.210001
  HW2       13.350000       14.310001       14.790001
  OW        12.450000       18.250000        9.700001
  HW1       11.570001       17.790001        9.750000
  HW2       12.350000       19.110001        9.190001
28
 generated by VMD
  C1        10.950001       15.220001       10.020000
  C2        10.490000       14.340000       10.980000
  C3         9.380000       14.660001       11.680001
  C4         8.770000       15.860001       11.450001
  C5         9.280001       16.680000       10.440001
  N6        10.370001       16.390001        9.730000
  H7         8.920000       14.050001       12.460001
  H8        11.810001       14.900002        9.440001
  H9        11.040001       13.420000       11.110001
  H10        7.870001       16.080000       12.010001
  H11        8.730000       17.590000       10.240001
  P1        14.510001       16.930000       11.800001
  O2        14.160000       15.760001       10.980000
  O3        13.630000       17.090000       13.030001
  H4        13.620001       16.170002       13.290001
  O5        15.970001       17.040001       12.460001
  H6        15.840001       17.910002       12.840000
  O7        14.520000       18.270000       10.990001
  H8        13.780001       18.030001       10.420000
  OW        13.670001       13.110001       11.800001
  HW1       14.510001       12.600001       11.980000
  HW2       13.890000       13.970001       11.340000
  OW        13.200001       14.600000       14.110001
  HW1       13.050001       13.990001       13.330001
  HW2       12.490001       14.450001       14.800000
  OW        12.340001       18.330000        9.240000
  HW1       11.570001       17.710001        9.410001
  HW2       12.210001       18.770000        8.350000
