34
 generated by VMD
  C1         3.150000       18.080002       17.240002
  C2         1.800000       18.210001       16.910002
  C3         0.870000       18.570002       17.930000
  C4         1.300000       18.750002       19.250000
  C5         2.620000       18.490002       19.530001
  H6        -0.150000       18.880001       17.710001
  H7         4.040000       17.840000       16.620001
  H8         0.600000       19.110001       19.990002
  H9         3.030000       18.620001       20.530003
  C10        1.260000       17.960001       15.500001
  H11        0.740000       18.810001       15.040001
  H12        2.100000       17.790001       14.830000
  H13        0.630000       17.070002       15.450001
  N14        3.480000       18.050001       18.580000
  C15        4.840000       17.480000       19.040001
  H16        4.700000       16.930000       19.970001
  H17        5.100000       16.770000       18.260000
  C18        5.940001       18.560001       19.110001
  H19        5.610001       19.480001       18.620001
  H20        6.030001       18.800001       20.180000
  C21        7.280001       18.180000       18.540001
  H22        8.060000       18.870001       18.870001
  H23        7.710000       17.230000       18.910000
  C24        7.350000       18.050001       17.000000
  O25        7.830000       18.970001       16.360001
  O26        6.450000       17.320002       16.490000
  P1         5.350000       19.670002       14.410001
  O2         4.450000       20.040001       15.510001
  O3         4.880000       20.170002       13.070001
  H4         5.750000       20.080002       12.650002
  O5         6.820001       20.320000       14.370001
  H6         7.320001       19.900002       15.080000
  O7         5.560000       18.150002       14.140000
  H8         5.940001       17.870001       14.980000
34
 generated by VMD
  C1         3.490000       16.920000       17.690001
  C2         2.390000       17.100000       16.850000
  C3         1.750000       18.340000       16.840002
  C4         2.180000       19.370001       17.660000
  C5         3.310000       19.160002       18.450001
  H6         0.990000       18.610001       16.110001
  H7         4.170000       16.040001       17.650002
  H8         1.790000       20.350000       17.430000
  H9         3.860000       19.980001       18.890001
  C10        2.050000       16.030001       15.820000
  H11        2.430000       16.220001       14.820002
  H12        2.550000       15.090000       16.030001
  H13        0.960000       15.880001       15.790001
  N14        3.960000       17.940001       18.460001
  C15        4.880000       17.620001       19.630001
  H16        4.370000       18.000000       20.510002
  H17        4.900000       16.530001       19.700001
  C18        6.260000       18.160002       19.410002
  H19        6.280000       19.230001       19.180000
  H20        6.770000       18.110001       20.380001
  C21        7.120000       17.510000       18.270000
  H22        8.180000       17.650002       18.490002
  H23        7.000000       16.420000       18.220001
  C24        6.830000       18.020000       16.920000
  O25        7.280001       19.080002       16.560001
  O26        5.990000       17.350002       16.240002
  P1         4.930000       20.280001       14.780001
  O2         4.640000       20.850000       16.080000
  O3         4.400000       21.140001       13.560000
  H4         4.830000       20.620001       12.860001
  O5         6.460000       20.220001       14.340000
  H6         6.950001       19.720001       15.010000
  O7         4.480000       18.800001       14.510001
  H8         5.020000       18.290001       15.130001
34
 generated by VMD
  C1         3.650000       17.240002       17.360001
  C2         2.450000       17.660000       16.780001
  C3         1.800000       18.720001       17.450001
  C4         2.380000       19.370001       18.560001
  C5         3.500000       18.810001       19.180000
  H6         0.920000       19.130001       16.960001
  H7         4.200000       16.370001       16.940001
  H8         1.840000       20.200001       18.990000
  H9         3.890000       19.190002       20.110001
  C10        1.820000       16.870001       15.650001
  H11        1.550000       17.550001       14.840001
  H12        2.570000       16.170002       15.280001
  H13        0.940000       16.330002       16.010000
  N14        4.100000       17.710001       18.540001
  C15        5.010000       16.850000       19.300001
  H16        4.460000       16.540001       20.190001
  H17        5.310000       16.060001       18.610001
  C18        6.380000       17.590000       19.600000
  H19        6.230000       18.630001       19.890001
  H20        6.910000       17.230000       20.490000
  C21        7.300000       17.570002       18.400000
  H22        8.210000       18.030001       18.780001
  H23        7.600000       16.590000       18.010002
  C24        6.810000       18.450001       17.180000
  O25        6.550000       19.660000       17.320002
  O26        6.440001       17.840000       16.140001
  P1         4.800000       19.990002       14.380001
  O2         3.710000       19.950001       15.340000
  O3         4.480000       20.740002       13.010001
  H4         5.400000       20.770000       12.720001
  O5         6.170001       20.730001       14.670001
  H6         6.390000       20.360001       15.540000
  O7         5.330000       18.560001       13.960000
  H8         5.780000       18.220001       14.740001
34
 generated by VMD
  C1         3.210000       17.800001       17.280001
  C2         1.930000       18.250000       16.990002
  C3         1.010000       18.280001       18.060001
  C4         1.370000       17.940001       19.350000
  C5         2.700000       17.570002       19.590000
  H6        -0.020000       18.580000       17.860001
  H7         4.050000       17.580002       16.590000
  H8         0.750000       17.810001       20.220001
  H9         3.050000       17.210001       20.550001
  C10        1.430000       18.560001       15.570001
  H11        2.100000       18.090002       14.850000
  H12        0.430000       18.200001       15.320001
  H13        1.550000       19.610001       15.300001
  N14        3.610000       17.420002       18.550001
  C15        5.110001       17.220001       18.860001
  H16        5.200000       16.510000       19.680000
  H17        5.530000       16.650002       18.040001
  C18        5.880000       18.540001       19.060001
  H19        5.420001       19.250000       18.370001
  H20        5.720000       19.020000       20.030001
  C21        7.350000       18.420002       18.580000
  H22        7.870001       19.280001       19.000000
  H23        7.800000       17.480000       18.920000
  C24        7.420001       18.530001       16.940001
  O25        7.540000       19.640001       16.440001
  O26        6.880000       17.580002       16.260000
  P1         5.160000       19.770000       14.410001
  O2         4.370000       19.990002       15.620001
  O3         4.520000       20.270002       13.100000
  H4         5.280000       20.020000       12.570001
  O5         6.550000       20.490000       14.230001
  H6         7.000000       20.300003       15.060000
  O7         5.600000       18.290001       14.150001
  H8         6.220000       18.150002       14.870001
34
 generated by VMD
  C1         3.540000       17.130001       17.480000
  C2         2.480000       17.660000       16.790001
  C3         1.760000       18.730001       17.440001
  C4         2.210000       19.250000       18.640001
  C5         3.370000       18.730001       19.190002
  H6         0.890000       19.050001       16.890001
  H7         4.250000       16.330002       17.180000
  H8         1.680000       20.080002       19.090000
  H9         3.790000       19.150002       20.100000
  C10        2.080000       17.040001       15.450001
  H11        2.010000       17.800001       14.670001
  H12        2.790000       16.270000       15.150002
  H13        1.110000       16.550001       15.590000
  N14        3.990000       17.700001       18.630001
  C15        5.070000       17.010000       19.400002
  H16        4.590000       16.730001       20.340002
  H17        5.310000       16.070002       18.900002
  C18        6.370000       17.810001       19.580000
  H19        6.170001       18.880001       19.720001
  H20        6.920000       17.510000       20.480001
  C21        7.330000       17.660000       18.350000
  H22        8.310000       18.080002       18.550001
  H23        7.600000       16.620001       18.130001
  C24        6.820001       18.320002       17.020000
  O25        6.980000       19.520000       16.880001
  O26        6.060000       17.520000       16.340000
  P1         4.790000       20.010002       14.410001
  O2         3.760000       20.130001       15.450001
  O3         4.480000       20.690001       13.050001
  H4         5.370000       21.030003       12.900001
  O5         6.200000       20.730001       14.680000
  H6         6.560000       20.370003       15.500001
  O7         5.320000       18.600002       13.990001
  H8         5.630000       18.250000       14.840001
34
 generated by VMD
  C1         3.740000       16.980001       17.650002
  C2         2.720000       17.610001       16.840002
  C3         1.970000       18.690001       17.330000
  C4         2.360000       19.180000       18.520000
  C5         3.450000       18.700001       19.240002
  H6         1.120000       19.080002       16.770000
  H7         4.200000       16.030001       17.340000
  H8         1.860000       20.070002       18.890001
  H9         3.940000       19.240002       20.040001
  C10        2.440000       16.970001       15.520000
  H11        3.320000       16.550001       15.020000
  H12        1.740000       16.140001       15.550001
  H13        2.060000       17.760002       14.870001
  N14        4.170000       17.660000       18.770000
  C15        5.210000       17.000000       19.610001
  H16        4.820000       16.840002       20.610001
  H17        5.350000       16.020000       19.139999
  C18        6.560000       17.750000       19.590000
  H19        6.410000       18.780001       19.930002
  H20        7.210000       17.330000       20.360001
  C21        7.350000       17.670000       18.260000
  H22        8.310000       18.180000       18.360001
  H23        7.630000       16.639999       18.020000
  C24        6.720000       18.310001       17.050001
  O25        6.540000       19.480001       17.080000
  O26        6.020000       17.540001       16.290001
  P1         4.610000       20.090000       14.290000
  O2         3.370000       19.970001       15.040001
  O3         4.610000       20.860003       12.950001
  H4         5.550000       20.970001       12.770000
  O5         5.790000       20.870001       14.950001
  H6         5.910000       20.389999       15.780001
  O7         5.410000       18.770000       13.960000
  H8         5.380001       18.270000       14.790001
34
 generated by VMD
  C1         3.690000       17.040001       17.520000
  C2         2.470000       17.480000       16.940001
  C3         1.760000       18.550001       17.440001
  C4         2.340000       19.300001       18.500002
  C5         3.570000       18.890001       19.030001
  H6         0.800000       18.850000       17.050001
  H7         4.360000       16.220001       17.200001
  H8         1.870000       20.140001       19.000000
  H9         4.040000       19.350000       19.890001
  C10        1.850000       16.630001       15.820000
  H11        2.540000       15.960001       15.300001
  H12        1.060000       16.020000       16.240002
  H13        1.520000       17.270000       15.000001
  N14        4.150000       17.740000       18.590000
  C15        5.190001       17.060001       19.460001
  H16        4.810000       17.010000       20.480001
  H17        5.250000       16.060001       19.040001
  C18        6.600000       17.660000       19.520000
  H19        6.490001       18.720001       19.770000
  H20        7.130001       17.190001       20.350000
  C21        7.380000       17.470001       18.210001
  H22        8.410000       17.820000       18.330000
  H23        7.450001       16.440001       17.840000
  C24        6.820001       18.290001       16.990002
  O25        6.410000       19.420002       17.180000
  O26        6.330000       17.560001       16.040001
  P1         4.760000       20.150002       14.370001
  O2         3.500000       20.050001       15.170001
  O3         4.620000       21.000002       13.050001
  H4         5.550000       20.970001       12.820001
  O5         5.980000       20.870001       15.000001
  H6         6.120000       20.400002       15.830001
  O7         5.410000       18.830002       13.940001
  H8         5.680000       18.380001       14.750000
34
 generated by VMD
  C1         3.650000       17.010000       17.450001
  C2         2.580000       17.550001       16.720001
  C3         1.880000       18.620001       17.330000
  C4         2.270000       19.170000       18.540001
  C5         3.310000       18.600002       19.230001
  H6         1.190000       19.190002       16.720001
  H7         4.380000       16.240002       17.130001
  H8         1.610000       19.900002       19.010002
  H9         3.620000       18.940001       20.210001
  C10        2.220000       17.030001       15.400001
  H11        2.070000       15.950001       15.290001
  H12        1.280000       17.450001       15.030001
  H13        3.000000       17.360001       14.710001
  N14        4.000000       17.550001       18.690001
  C15        5.150001       16.900002       19.450001
  H16        4.720000       16.660002       20.420000
  H17        5.380001       15.990001       18.890001
  C18        6.460000       17.780001       19.520000
  H19        6.200000       18.770000       19.900002
  H20        7.090001       17.250000       20.240002
  C21        7.310000       17.910002       18.280001
  H22        8.220000       18.490002       18.440001
  H23        7.560000       16.890001       17.960001
  C24        6.570000       18.560001       17.110001
  O25        6.710000       19.750002       16.920000
  O26        6.150000       17.710001       16.260000
  P1         4.810000       20.020000       14.490002
  O2         3.820000       20.100000       15.580001
  O3         4.380000       20.670002       13.120001
  H4         5.110001       20.420000       12.530001
  O5         6.240000       20.680000       14.600000
  H6         6.500000       20.440002       15.490000
  O7         5.150001       18.580000       14.030001
  H8         5.570001       18.240002       14.830000
34
 generated by VMD
  C1         3.740000       17.060001       17.660000
  C2         2.610000       17.480000       16.920000
  C3         1.910000       18.610001       17.400002
  C4         2.330000       19.250000       18.530001
  C5         3.420000       18.780001       19.280001
  H6         1.120000       19.090000       16.830002
  H7         4.470000       16.290001       17.350002
  H8         1.810000       20.100000       18.940001
  H9         3.840000       19.420002       20.040001
  C10        2.190000       16.800001       15.670000
  H11        1.740000       17.460001       14.920001
  H12        3.050000       16.290001       15.240001
  H13        1.460000       16.030001       15.940001
  N14        4.080000       17.660000       18.880001
  C15        5.100000       16.910002       19.710001
  H16        4.680000       16.780001       20.710001
  H17        5.100000       15.890001       19.310001
  C18        6.530001       17.510000       19.670002
  H19        6.500000       18.570002       19.940001
  H20        7.200000       17.060001       20.410002
  C21        7.110000       17.560001       18.230001
  H22        8.090000       18.040001       18.220001
  H23        7.300000       16.550001       17.850000
  C24        6.490001       18.430000       17.100000
  O25        6.210001       19.560001       17.370001
  O26        6.140000       17.820000       16.060001
  P1         4.820000       20.110001       14.190001
  O2         3.550000       19.890001       14.860001
  O3         4.800000       20.920000       12.910000
  H4         5.750000       20.900002       12.770000
  O5         6.030001       20.850000       14.930000
  H6         6.130000       20.370003       15.770000
  O7         5.580000       18.810001       13.780001
  H8         5.740000       18.450001       14.660001
34
 generated by VMD
  C1         3.420000       17.160000       17.130001
  C2         2.180000       17.450001       16.510000
  C3         1.280000       18.400000       17.120001
  C4         1.790000       19.090000       18.220001
  C5         3.020000       18.780001       18.830002
  H6         0.340000       18.760000       16.720001
  H7         4.230000       16.560001       16.670000
  H8         1.160000       19.830000       18.690001
  H9         3.350000       19.310001       19.710001
  C10        1.870000       16.870001       15.160000
  H11        1.730000       15.790001       15.250001
  H12        0.900000       17.220001       14.800000
  H13        2.690000       17.080000       14.470000
  N14        3.780000       17.760002       18.350000
  C15        4.930000       17.210001       19.160002
  H16        4.480000       16.800001       20.070002
  H17        5.320000       16.380001       18.570002
  C18        6.080000       18.260000       19.480001
  H19        5.680000       19.280001       19.400002
  H20        6.300001       18.130001       20.540001
  C21        7.390000       18.070000       18.570002
  H22        8.140000       18.720001       19.010002
  H23        7.770000       17.040001       18.630001
  C24        7.210000       18.410000       17.040001
  O25        7.620000       19.500000       16.630001
  O26        6.540000       17.530001       16.360001
  P1         4.970000       19.980001       14.800000
  O2         4.370000       20.020000       16.150002
  O3         4.160000       20.570002       13.580000
  H4         4.930000       20.540001       13.000001
  O5         6.310000       20.670002       14.560001
  H6         6.840000       20.310001       15.280001
  O7         5.240001       18.570002       14.340000
  H8         5.790000       18.200001       15.040001
34
 generated by VMD
  C1         2.830000       17.750000       17.250000
  C2         1.500000       18.210001       17.100000
  C3         0.720000       18.410000       18.240002
  C4         1.230000       18.070000       19.470001
  C5         2.520000       17.650002       19.580000
  H6        -0.270000       18.820002       18.130001
  H7         3.530000       17.470001       16.440001
  H8         0.540000       18.180000       20.290001
  H9         2.930000       17.490002       20.559999
  C10        0.960000       18.480000       15.710001
  H11        0.140000       17.820000       15.420000
  H12        0.520000       19.480001       15.700001
  H13        1.740000       18.520000       14.950001
  N14        3.350000       17.620001       18.520000
  C15        4.860000       17.240002       18.680000
  H16        4.990000       16.390001       19.360001
  H17        5.180000       16.970001       17.680000
  C18        5.740000       18.370001       19.170000
  H19        5.380001       19.280001       18.680000
  H20        5.740000       18.390001       20.260000
  C21        7.180000       18.270000       18.720001
  H22        7.810000       18.970001       19.280001
  H23        7.610001       17.270000       18.840000
  C24        7.440000       18.650002       17.180000
  O25        7.230000       19.850002       16.910002
  O26        7.010000       17.700001       16.380001
  P1         5.550000       19.640001       14.200001
  O2         4.420000       19.390001       15.130001
  O3         5.110001       20.150002       12.760000
  H4         6.030001       20.410002       12.620001
  O5         6.630001       20.750000       14.470000
  H6         6.870000       20.400002       15.330001
  O7         6.520000       18.480000       13.900002
  H8         6.860001       18.150002       14.740001
34
 generated by VMD
  C1         3.330000       17.260000       17.170002
  C2         2.160000       17.550001       16.550001
  C3         1.290000       18.480000       17.120001
  C4         1.610000       19.110001       18.300001
  C5         2.820000       18.880001       18.870001
  H6         0.350000       18.660000       16.600000
  H7         4.040000       16.470001       16.860001
  H8         0.950000       19.800001       18.800001
  H9         3.020000       19.190002       19.890001
  C10        1.840000       16.790001       15.360001
  H11        0.950000       17.170002       14.840001
  H12        2.630000       16.880001       14.630001
  H13        1.650000       15.720000       15.520000
  N14        3.630000       17.950001       18.340000
  C15        4.840000       17.330000       19.170000
  H16        4.410000       16.890001       20.080002
  H17        5.330000       16.590000       18.550001
  C18        5.940001       18.340000       19.530001
  H19        5.530000       19.350000       19.400002
  H20        6.090000       18.280001       20.620001
  C21        7.280001       18.190001       18.740002
  H22        7.970000       19.010002       18.970001
  H23        7.810000       17.250000       18.930000
  C24        7.190001       18.270000       17.180000
  O25        7.800000       19.139999       16.600000
  O26        6.410000       17.430000       16.530001
  P1         5.090000       19.980001       14.650001
  O2         4.290000       20.150002       15.840001
  O3         4.510000       20.580002       13.320000
  H4         5.240001       20.340002       12.720001
  O5         6.550000       20.510002       14.570000
  H6         7.030000       20.090000       15.290001
  O7         5.280000       18.500002       14.400001
  H8         5.740000       18.220001       15.200001
34
 generated by VMD
  C1         3.430000       17.220001       17.550001
  C2         2.550000       17.630001       16.550001
  C3         1.890000       18.870001       16.700001
  C4         2.210000       19.670002       17.820000
  C5         3.120000       19.270000       18.750002
  H6         1.280000       19.280001       15.900001
  H7         4.070000       16.320002       17.500002
  H8         1.740000       20.640001       17.840000
  H9         3.610000       19.880001       19.490002
  C10        2.290000       16.700001       15.340000
  H11        2.820000       15.750000       15.350000
  H12        1.220000       16.500000       15.280001
  H13        2.620000       17.170002       14.400001
  N14        3.690000       17.990002       18.660000
  C15        4.580000       17.420002       19.730000
  H16        4.060000       17.610001       20.670002
  H17        4.570000       16.360001       19.500000
  C18        6.000000       17.980001       19.690001
  H19        5.940001       19.070000       19.620001
  H20        6.460000       17.760002       20.660000
  C21        6.850000       17.290001       18.560001
  H22        7.910000       17.370001       18.830002
  H23        6.600000       16.240002       18.390001
  C24        6.740000       17.970001       17.210001
  O25        7.090001       19.139999       17.040001
  O26        6.010000       17.360001       16.410000
  P1         5.070000       19.990002       14.590001
  O2         3.980000       20.190001       15.500001
  O3         4.820000       20.870001       13.300000
  H4         5.570001       20.570002       12.780001
  O5         6.550000       20.420000       14.820002
  H6         6.820001       19.960001       15.620001
  O7         5.240001       18.510000       14.110001
  H8         5.510000       18.100000       14.940001
34
 generated by VMD
  C1         3.300000       17.210001       17.240002
  C2         2.120000       17.480000       16.520000
  C3         1.280000       18.550001       16.940001
  C4         1.770000       19.330002       18.060001
  C5         3.010000       19.090000       18.610001
  H6         0.370000       18.830002       16.420000
  H7         4.070000       16.450001       16.980001
  H8         1.170000       20.170002       18.380001
  H9         3.550000       19.700001       19.320000
  C10        1.790000       16.730001       15.230001
  H11        2.500000       15.910001       15.110001
  H12        0.790000       16.320002       15.200001
  H13        1.920000       17.370001       14.350000
  N14        3.750000       18.020000       18.310001
  C15        4.700000       17.440001       19.400002
  H16        4.100000       17.310001       20.300003
  H17        5.030000       16.440001       19.090000
  C18        5.980000       18.300001       19.610001
  H19        5.790000       19.360001       19.380001
  H20        6.260000       18.310001       20.670002
  C21        7.170000       17.820000       18.760000
  H22        8.130000       18.230001       19.060001
  H23        7.210000       16.720001       18.850000
  C24        6.930000       18.090002       17.210001
  O25        7.400000       19.110001       16.780001
  O26        6.130000       17.330000       16.590000
  P1         5.190001       20.020000       14.660001
  O2         4.240000       20.070002       15.770000
  O3         4.800000       20.680000       13.340001
  H4         5.710001       20.950001       13.190001
  O5         6.610000       20.540001       14.810000
  H6         6.950001       20.120001       15.610001
  O7         5.530000       18.530001       14.270000
  H8         5.680000       18.220001       15.160000
34
 generated by VMD
  C1         3.260000       17.350002       17.490002
  C2         2.220000       17.850000       16.690001
  C3         1.490000       18.980001       17.060001
  C4         1.880000       19.620001       18.250000
  C5         2.930000       19.110001       18.980001
  H6         0.720000       19.400002       16.430000
  H7         3.970000       16.530001       17.250000
  H8         1.430000       20.559999       18.540001
  H9         3.410000       19.680000       19.770000
  C10        1.890000       17.190001       15.390000
  H11        2.310000       17.840000       14.630001
  H12        2.430000       16.250002       15.300001
  H13        0.810000       17.020000       15.400001
  N14        3.610000       17.970001       18.650002
  C15        4.490000       17.220001       19.650002
  H16        3.910000       17.320002       20.559999
  H17        4.530000       16.180000       19.320000
  C18        5.930000       17.800001       19.860001
  H19        5.900001       18.890001       19.820002
  H20        6.320000       17.440001       20.820000
  C21        7.010000       17.480000       18.800001
  H22        8.030001       17.680000       19.110001
  H23        7.090001       16.390001       18.710001
  C24        6.740000       18.020000       17.310001
  O25        6.970000       19.220001       17.090000
  O26        6.080000       17.310001       16.470001
  P1         5.310000       19.920002       14.320001
  O2         4.010000       20.160000       14.930000
  O3         5.430000       20.540001       12.880001
  H4         6.340000       20.370003       12.600001
  O5         6.630001       20.500002       14.870001
  H6         6.750000       20.000000       15.680000
  O7         5.600000       18.390001       14.140000
  H8         5.760000       17.990002       15.000001
34
 generated by VMD
  C1         3.060000       17.220001       17.440001
  C2         2.110000       17.630001       16.560001
  C3         1.640000       18.930000       16.710001
  C4         2.170000       19.790001       17.670000
  C5         3.220000       19.380001       18.460001
  H6         0.880000       19.270000       16.020000
  H7         3.680000       16.300001       17.360001
  H8         1.850000       20.830002       17.740000
  H9         3.690000       20.040001       19.180000
  C10        1.690000       16.660002       15.490000
  H11        0.850000       17.070002       14.930000
  H12        2.560000       16.470001       14.860001
  H13        1.420000       15.680000       15.910001
  N14        3.570000       18.060001       18.420002
  C15        4.280000       17.460001       19.560001
  H16        3.640000       17.570002       20.440002
  H17        4.420000       16.410000       19.310001
  C18        5.690000       18.060001       19.810001
  H19        5.590000       19.139999       19.730000
  H20        6.000000       17.850000       20.840000
  C21        6.830000       17.480000       18.870001
  H22        7.790000       17.770000       19.290001
  H23        6.910000       16.390001       18.840000
  C24        6.760001       18.040001       17.360001
  O25        7.240000       19.130001       17.050001
  O26        6.050000       17.360001       16.520000
  P1         5.390000       19.980001       14.570000
  O2         4.660000       20.480001       15.740002
  O3         5.070000       20.630001       13.170000
  H4         5.520000       19.950001       12.660000
  O5         6.950001       19.920002       14.560001
  H6         7.160000       19.620001       15.450001
  O7         5.080000       18.440001       14.310001
  H8         5.370000       18.020000       15.130001
34
 generated by VMD
  C1         3.280000       17.600000       17.450001
  C2         2.170000       17.920000       16.680000
  C3         1.550000       19.110001       16.940001
  C4         2.040000       19.960001       17.990002
  C5         3.130000       19.520000       18.770000
  H6         0.680000       19.450001       16.380001
  H7         3.900000       16.700001       17.270000
  H8         1.610000       20.930002       18.210001
  H9         3.550000       20.050001       19.610001
  C10        1.610000       16.970001       15.650001
  H11        2.500000       16.660002       15.080000
  H12        1.170000       16.070002       16.080000
  H13        0.930000       17.540001       15.020000
  N14        3.620000       18.290001       18.580000
  C15        4.240000       17.530001       19.710001
  H16        3.710000       17.730001       20.650002
  H17        4.130000       16.470001       19.510000
  C18        5.750000       17.870001       19.890001
  H19        5.890000       18.950001       19.950001
  H20        6.010000       17.470001       20.870001
  C21        6.630001       17.260000       18.770000
  H22        7.690001       17.190001       19.040001
  H23        6.460000       16.200001       18.540001
  C24        6.540000       18.020000       17.390001
  O25        6.830000       19.200001       17.400002
  O26        6.030001       17.400002       16.410000
  P1         5.450000       19.700001       14.280001
  O2         4.150000       19.550001       14.900002
  O3         5.510000       20.559999       12.930001
  H4         6.420000       20.340002       12.700001
  O5         6.570000       20.420000       15.080000
  H6         6.550000       20.020000       15.960001
  O7         6.160001       18.290001       13.950001
  H8         6.200000       17.920000       14.840001
34
 generated by VMD
  C1         3.440000       17.340000       17.560001
  C2         2.520000       17.820000       16.630001
  C3         1.820000       19.020000       16.880001
  C4         1.900000       19.550001       18.150002
  C5         2.780000       19.040001       19.060001
  H6         1.120000       19.430000       16.160000
  H7         4.010000       16.400002       17.440001
  H8         1.410000       20.490000       18.370001
  H9         2.960000       19.410002       20.060001
  C10        2.280000       17.020000       15.370001
  H11        2.960000       16.170002       15.340000
  H12        1.240000       16.690001       15.270000
  H13        2.400000       17.660000       14.490002
  N14        3.610000       17.970001       18.730001
  C15        4.530000       17.280001       19.770000
  H16        4.040000       17.270000       20.740002
  H17        4.640000       16.240002       19.480001
  C18        5.940001       17.930000       19.860001
  H19        5.800000       19.010002       19.760000
  H20        6.370000       17.840000       20.860003
  C21        6.970000       17.440001       18.780001
  H22        7.920001       17.820000       19.170000
  H23        7.040000       16.350000       18.740002
  C24        6.720000       18.130001       17.370001
  O25        6.800000       19.360001       17.320002
  O26        6.070001       17.470001       16.550001
  P1         5.160000       19.870001       14.240000
  O2         3.870000       20.170002       14.850000
  O3         5.460000       20.530003       12.850000
  H4         6.370000       20.220001       12.820001
  O5         6.450000       20.420000       14.880000
  H6         6.620001       19.970001       15.720000
  O7         5.550000       18.340000       14.030001
  H8         5.730000       17.990002       14.910001
34
 generated by VMD
  C1         2.920000       18.890001       17.490002
  C2         1.620000       19.120001       17.040001
  C3         0.610000       18.360001       17.640001
  C4         0.870000       17.530001       18.700001
  C5         2.130000       17.490002       19.250000
  H6        -0.420000       18.400000       17.290001
  H7         3.790000       19.460001       17.120001
  H8         0.140000       16.940001       19.230001
  H9         2.420000       16.810001       20.040001
  C10        1.260000       19.930002       15.820000
  H11        0.520000       20.720001       15.990001
  H12        2.160000       20.389999       15.410002
  H13        0.960000       19.280001       14.990001
  N14        3.140000       17.960001       18.480000
  C15        4.580000       17.520000       18.710001
  H16        4.620000       16.530001       19.160002
  H17        4.870000       17.330000       17.680000
  C18        5.480000       18.580000       19.400002
  H19        5.170000       19.590000       19.120001
  H20        5.350000       18.400000       20.480001
  C21        6.990001       18.490002       19.020000
  H22        7.480000       19.240002       19.630001
  H23        7.380000       17.500002       19.300001
  C24        7.340000       18.830002       17.540001
  O25        7.240000       19.980001       17.100000
  O26        7.110000       17.840000       16.750000
  P1         5.720000       19.120001       14.160000
  O2         4.550000       19.090000       15.000001
  O3         5.450000       19.350000       12.630000
  H4         6.270000       19.130001       12.170000
  O5         6.860001       20.110001       14.410001
  H6         7.050000       20.040001       15.350000
  O7         6.480000       17.720001       14.160000
  H8         6.630001       17.750000       15.110001
34
 generated by VMD
  C1         3.110000       18.710001       17.270000
  C2         1.860000       19.280001       16.970001
  C3         0.740000       18.770000       17.640001
  C4         0.930000       17.700001       18.540001
  C5         2.180000       17.210001       18.850000
  H6        -0.250000       19.190002       17.530001
  H7         4.070000       19.070000       16.850000
  H8         0.080000       17.410000       19.139999
  H9         2.380000       16.460001       19.600000
  C10        1.730000       20.370003       15.960001
  H11        1.400000       19.970001       15.000001
  H12        1.070000       21.090002       16.450001
  H13        2.710000       20.850000       15.900001
  N14        3.250000       17.690001       18.160002
  C15        4.650001       17.280001       18.470001
  H16        4.560000       16.270000       18.860001
  H17        5.190001       17.340000       17.520000
  C18        5.440001       18.200001       19.450001
  H19        4.850000       19.080002       19.710001
  H20        5.480000       17.660000       20.400002
  C21        6.850000       18.550001       19.090000
  H22        7.210000       19.320000       19.790001
  H23        7.510000       17.670000       19.100000
  C24        6.950001       19.190002       17.650002
  O25        6.110000       20.050001       17.520000
  O26        7.370000       18.390001       16.730001
  P1         5.770000       18.830002       14.190001
  O2         4.600000       18.160002       14.770001
  O3         5.530000       19.430000       12.760000
  H4         6.170001       20.140001       12.860001
  O5         6.140000       20.190001       14.800000
  H6         6.250000       20.060001       15.750000
  O7         7.190001       18.130001       14.150001
  H8         7.340000       18.060001       15.100001
34
 generated by VMD
  C1         3.160000       17.900002       17.110001
  C2         1.940000       18.190001       16.470001
  C3         0.820000       18.470001       17.330000
  C4         0.900000       18.340000       18.740002
  C5         2.130000       17.950001       19.280001
  H6        -0.140000       18.710001       16.890001
  H7         4.130000       17.800001       16.580002
  H8         0.120000       18.520000       19.470001
  H9         2.270000       17.840000       20.340002
  C10        1.840000       18.370001       14.960001
  H11        1.060000       17.680000       14.620000
  H12        1.540000       19.360001       14.610001
  H13        2.770000       18.120001       14.440001
  N14        3.240000       17.860001       18.480000
  C15        4.650001       17.720001       19.150002
  H16        4.470000       17.370001       20.160000
  H17        5.100000       16.870001       18.640001
  C18        5.500000       18.940001       18.940001
  H19        5.100000       19.460001       18.060001
  H20        5.280000       19.650002       19.740002
  C21        7.000000       18.560001       18.840000
  H22        7.680000       19.360001       19.139999
  H23        7.150001       17.670000       19.470001
  C24        7.470000       18.290001       17.320002
  O25        7.890000       19.280001       16.780001
  O26        6.790000       17.440001       16.650002
  P1         5.500000       19.590000       14.570000
  O2         4.760000       19.990002       15.800000
  O3         4.820000       20.100000       13.240002
  H4         5.270000       19.570002       12.570001
  O5         6.990001       20.040001       14.400001
  H6         7.360001       19.950001       15.280001
  O7         5.560000       18.040001       14.430000
  H8         5.990000       17.850000       15.270000
