          18
 G =        0.070928 Gcorr = 0.094790 a.u. Nimag =   0 Frame:     1 Step:     1 Geom:     1
C           2.12875400      7.07280000     15.68204800
C           3.02075700      7.03047200     16.80838400
C           2.99504100      5.93953900     17.68395000
C           2.09116500      4.92659000     17.42040500
C           1.21849800      4.97687800     16.31110300
C           1.22004000      6.04146600     15.42789900
H           3.67078400      5.90909700     18.53605300
H           2.04263300      4.06177600     18.08003900
H           0.52834200      4.14853900     16.15570200
H           0.55231600      6.08305300     14.57664800
H           1.93925500      8.59580700     14.18390200
C           3.42502100      8.90449200     15.74465400
H           3.83453200      9.85930300     15.45168100
N           2.40256600      8.27025300     15.02129200
N           3.80515700      8.18808700     16.80535700
O           0.71620900      8.36626300     12.87545800
H           0.83502800      7.66595700     12.23396300
H          -0.21609900      8.37963400     13.09147000
          18
 G =        0.072288 Gcorr = 0.095705 a.u. Nimag =   1 Frame:     2 Step:     2 Geom:     2
C           2.06337700      6.88450300     15.73037300
C           3.00015300      6.95503100     16.81851500
C           3.08852200      5.90498100     17.73878500
C           2.25076900      4.81989700     17.55641300
C           1.33363300      4.75925100     16.48428200
C           1.22268800      5.78115900     15.55843200
H           3.79804600      5.96021800     18.56142100
H           2.29133500      3.98404700     18.25277600
H           0.69967000      3.87810900     16.39206700
H           0.51915000      5.73474800     14.73595500
H           1.71156400      8.33156800     14.18172500
C           3.22583500      8.80471800     15.66327100
H           3.55234000      9.77221600     15.31297700
N           2.22400100      8.06898700     15.01056900
N           3.69835200      8.16386200     16.73497900
O           0.79899300      8.79936300     12.70237700
H          -0.13187900      9.01273000     12.76576000
H           0.91344900      8.32461800     11.87933800
          18
 G =        0.070944 Gcorr = 0.094807 a.u. Nimag =   0 Frame:     3 Step:     3 Geom:     3
C           2.14560800      7.03841900     15.66386200
C           3.14813000      6.84667000     16.67592000
C           2.99518700      5.83842600     17.63377100
C           1.85939000      5.05268200     17.56239500
C           0.87961500      5.24851300     16.56423500
C           1.00227200      6.23642900     15.60382900
H           3.75490100      5.69462100     18.39913400
H           1.70633500      4.25822500     18.29095800
H           0.00619800      4.59755900     16.55945500
H           0.25297700      6.38915200     14.83736600
H           2.10455400      8.48453300     14.08049100
C           3.81743500      8.51712600     15.42351900
H           4.38829600      9.33342300     15.00762000
N           2.59075600      8.10316500     14.88050700
N           4.16538300      7.78715100     16.48600100
O           0.69666100      8.48080300     12.94987100
H          -0.17094400      8.72304100     13.27335600
H           0.56724600      7.74006700     12.35772400
          18
 G =        0.070928 Gcorr = 0.094791 a.u. Nimag =   0 Frame:     4 Step:     4 Geom:     4
C           2.12411300      7.02308300     15.64967900
C           3.19314600      6.76357000     16.57482800
C           3.01805800      5.83689300     17.60828000
C           1.79529300      5.19677100     17.69564000
C           0.75060000      5.45827300     16.78194500
C           0.89310100      6.36846100     15.75010900
H           3.82819900      5.64160300     18.30767400
H           1.62256000      4.46921600     18.48697800
H          -0.19023000      4.92251400     16.90203200
H           0.09421100      6.57114500     15.04802700
H           2.09700600      8.37315900     13.98339000
C           3.92765100      8.26534800     15.15635800
H           4.54706200      8.97955300     14.63536100
N           2.61208100      7.97882700     14.75864700
N           4.29101200      7.55739200     16.22852800
O           0.59241600      8.48282100     12.99106900
H          -0.20333400      8.84905100     13.37669800
H           0.31705800      7.73232600     12.46476600
          18
 G =        0.070917 Gcorr = 0.094780 a.u. Nimag =   0 Frame:     5 Step:     5 Geom:     5
C           2.13917100      7.05239300     15.66763400
C           3.16236400      6.85022100     16.65670900
C           3.02301000      5.84036200     17.61492600
C           1.87996200      5.06342200     17.56662300
C           0.87984000      5.26949200     16.59095900
C           0.98873900      6.25920200     15.63073700
H           3.79843000      5.68850800     18.36278500
H           1.73706100      4.26803600     18.29623600
H           0.00157900      4.62520600     16.60381100
H           0.22390500      6.41978400     14.88140800
H           2.07397400      8.50332200     14.08959100
C           3.81635300      8.51927100     15.39437100
H           4.38401700      9.33247000     14.96815600
N           2.57482900      8.11616700     14.87761800
N           4.18221500      7.78362700     16.44687900
O           0.64333500      8.50978900     12.98765800
H          -0.21642600      8.75702900     13.32790700
H           0.49764300      7.77170400     12.39600600
          18
 G =        0.070915 Gcorr = 0.094778 a.u. Nimag =   0 Frame:     6 Step:     6 Geom:     6
C           2.12030600      7.07488400     15.69922000
C           3.17562400      6.83497200     16.64517300
C           3.00345900      5.89326500     17.66544700
C           1.79703500      5.21935400     17.71957800
C           0.76577100      5.46176900     16.78559700
C           0.90578900      6.38608400     15.76604200
H           3.80320900      5.71278600     18.38060000
H           1.62705200      4.47927400     18.49983400
H          -0.16244600      4.89947500     16.87966100
H           0.11714400      6.57421200     15.04850200
H           2.09241500      8.44111400     14.04617300
C           3.89948000      8.37068600     15.25790200
H           4.51038000      9.10673900     14.75767400
N           2.60124700      8.05267600     14.82851200
N           4.25865400      7.66179600     16.33087800
O           0.60716700      8.52106000     13.02239300
H          -0.20652500      8.86035900     13.39497600
H           0.36423700      7.76950100     12.48185500
          18
 G =        0.071191 Gcorr = 0.094501 a.u. Nimag =   1 Frame:     7 Step:     7 Geom:     7
C           1.88581300      6.79695400     15.80913000
C           3.09828800      6.74759600     16.58043500
C           3.22020400      5.84377800     17.64134700
C           2.14344900      5.01801900     17.90767800
C           0.95633000      5.07347000     17.14483100
C           0.80542800      5.95586900     16.09024100
H           4.13842700      5.80843600     18.22323100
H           2.20188900      4.30208800     18.72561400
H           0.14132500      4.39791600     17.40204800
H          -0.10587900      5.99792600     15.50531100
H           1.43390200      8.07819800     14.13757700
C           3.37927300      8.29507500     15.05350700
H           3.79049400      9.08051800     14.43744500
N           2.08766200      7.78612300     14.84665800
N           3.99491900      7.69447500     16.07482100
O           1.19989500      9.15432900     12.69803400
H           1.27776600      8.84690500     11.79591900
H           0.63081600      9.92233100     12.67619100
          18
 G =        0.070994 Gcorr = 0.094856 a.u. Nimag =   0 Frame:     8 Step:     8 Geom:     8
C           2.11838300      7.03989000     15.67023600
C           3.08477900      6.92255900     16.72778300
C           3.05171000      5.82169600     17.59049800
C           2.06740500      4.87284100     17.38228000
C           1.12184700      4.99665700     16.34060200
C           1.12847500      6.07307900     15.47182100
H           3.78380000      5.73452600     18.39054400
H           2.01077000      4.00244500     18.03387600
H           0.36975300      4.21685200     16.22685500
H           0.40404200      6.17154700     14.67328100
H           1.92283300      8.59407200     14.20480700
C           3.53220500      8.78351100     15.65836700
H           3.98061300      9.71478100     15.34706200
N           2.42042900      8.22814800     15.00518700
N           3.94050700      8.02758600     16.68042000
O           0.66801000      8.40520500     12.92008900
H          -0.26307800      8.46641300     13.13251200
H           0.75751900      7.67820000     12.30379200
          18
 G =        0.070933 Gcorr = 0.094796 a.u. Nimag =   0 Frame:     9 Step:     9 Geom:     9
C           2.11391500      7.06870700     15.69941800
C           3.13364700      6.90419200     16.69899700
C           3.03648900      5.87156700     17.63797100
C           1.93765800      5.03543700     17.56065200
C           0.94059500      5.20481500     16.57485000
C           1.00841400      6.21578200     15.63317200
H           3.80914200      5.74843100     18.39392900
H           1.82833600      4.22078700     18.27464500
H           0.09821800      4.51422600     16.56459100
H           0.24573100      6.34833000     14.87621900
H           1.99115700      8.54175000     14.14537600
C           3.71314000      8.62791400     15.47430800
H           4.24169000      9.47777100     15.06986200
N           2.50196100      8.16795700     14.93353800
N           4.10442500      7.89445800     16.51917500
O           0.57372800      8.49547000     13.02764500
H          -0.30079300      8.69092600     13.36389400
H           0.47254600      7.76148600     12.42177100
          18
 G =        0.070877 Gcorr = 0.094740 a.u. Nimag =   0 Frame:    10 Step:    10 Geom:    10
C           2.10679000      6.99564300     15.75046900
C           2.51723800      6.98681800     17.12799100
C           2.98297900      5.80501000     17.71437400
C           3.02870400      4.67125200     16.92379700
C           2.62321700      4.68950300     15.57107300
C           2.15841500      5.84178500     14.96310300
H           3.29330000      5.79999900     18.75711600
H           3.38553900      3.73324100     17.34593000
H           2.68212700      3.76436400     14.99899900
H           1.84682400      5.85912700     13.92635300
H           1.35752900      8.63612700     14.58975100
C           1.87536400      9.03184500     16.66677200
H           1.63777100     10.08222200     16.74061500
N           1.70346100      8.30303100     15.47925700
N           2.35568600      8.27222500     17.65424500
O           0.91790400      8.33803900     12.86395500
H           0.17378700      7.77327600     12.65582900
H           1.60336500      8.12649600     12.23038500
          18
 G =        0.070911 Gcorr = 0.094774 a.u. Nimag =   0 Frame:    11 Step:    11 Geom:    11
C           2.18648600      7.06713600     15.66500900
C           2.29723400      6.91493300     17.09002200
C           2.97899500      5.81814100     17.62822400
C           3.52892700      4.90783300     16.74422800
C           3.41500600      5.06569600     15.34540400
C           2.74749300      6.13889200     14.78317500
H           3.06192100      5.70438200     18.70702400
H           4.06671500      4.04182600     17.12660100
H           3.86936200      4.31523800     14.69965600
H           2.65838600      6.26277500     13.71128800
H           1.21343700      8.62605400     14.55914600
C           1.16007100      8.75483700     16.73153300
H           0.59990600      9.66726900     16.86893300
N           1.46131700      8.24089700     15.46028500
N           1.64525800      7.98582300     17.70929400
O           1.24184100      8.54668100     12.75541900
H           2.07148700      8.65247700     12.29009000
H           0.76615900      7.84911400     12.30468800
          18
 G =        0.070912 Gcorr = 0.094775 a.u. Nimag =   0 Frame:    12 Step:    12 Geom:    12
C           2.23271800      7.06616100     15.67642500
C           2.64615400      7.02736800     17.05252100
C           2.99450500      5.80973700     17.64704200
C           2.92384500      4.67087500     16.86569600
C           2.51645000      4.71875100     15.51426700
C           2.16596800      5.90673500     14.89842600
H           3.30718300      5.78208100     18.68872000
H           3.18737100      3.70535500     17.29431000
H           2.48065000      3.78785900     14.94966300
H           1.85321900      5.94680600     13.86265400
H           1.64540600      8.76393800     14.50482700
C           2.20888500      9.12243400     16.57670300
H           2.07726500     10.19179000     16.64270400
N           1.96021300      8.40501200     15.39585900
N           2.61550400      8.32658100     17.56873100
O           1.17395500      8.49728800     12.78226800
H           1.83373200      8.21363800     12.14960400
H           0.37697800      8.00759700     12.57959300
          18
 G =        0.070912 Gcorr = 0.094775 a.u. Nimag =   0 Frame:    13 Step:    13 Geom:    13
C           2.15860400      7.01481900     15.66141600
C           3.02219000      6.86836800     16.80110200
C           2.98373400      5.69715600     17.56542200
C           2.09552800      4.70922700     17.18121000
C           1.25078800      4.86205500     16.05975700
C           1.26550800      6.00764700     15.28462000
H           3.63802300      5.58787300     18.42773800
H           2.03776800      3.78395600     17.75211200
H           0.57197900      4.04859100     15.80654900
H           0.61923000      6.12788000     14.42433000
H           1.99387600      8.67547500     14.31415400
C           3.43699900      8.83960700     15.93562400
H           3.84552500      9.82092200     15.74767700
N           2.43866600      8.27264800     15.12763800
N           3.79638700      8.02556000     16.93109900
O           0.80424000      8.56827800     12.95997200
H           0.94395000      7.93496100     12.25611100
H          -0.13299500      8.55498100     13.15348400
          18
 G =        0.070941 Gcorr = 0.094804 a.u. Nimag =   0 Frame:    14 Step:    14 Geom:    14
C           2.12599900      7.05065600     15.70151700
C           2.91492500      6.97020800     16.90035300
C           2.95956000      5.77914200     17.63302400
C           2.22526100      4.70700700     17.15991400
C           1.45289400      4.79541900     15.98081500
C           1.38858200      5.95860400     15.23498200
H           3.55718400      5.71991000     18.54019800
H           2.23580800      3.76389200     17.70380200
H           0.89566800      3.91674500     15.65824600
H           0.79747600      6.02962400     14.33067000
H           1.86498200      8.72208000     14.38311800
C           3.15555500      9.00245300     16.11360000
H           3.45757500     10.03007800     15.97956500
N           2.29338500      8.34863700     15.21910600
N           3.53490100      8.20505800     17.11514300
O           0.79864100      8.51986300     12.94001600
H           1.06358800      7.92961600     12.23469400
H          -0.14198500      8.39101200     13.06124600
          18
 G =        0.070929 Gcorr = 0.094792 a.u. Nimag =   0 Frame:    15 Step:    15 Geom:    15
C           2.17944700      7.06387800     15.66885500
C           2.83225500      7.00342400     16.94803500
C           2.96243200      5.77928300     17.61281400
C           2.44493900      4.65546700     16.99492300
C           1.80503500      4.72460400     15.73780700
C           1.66095000      5.91952400     15.05600700
H           3.45682400      5.73518100     18.58093200
H           2.52775100      3.68546200     17.48238500
H           1.41735500      3.80488200     15.30142000
H           1.17099400      5.97587200     14.09215800
H           1.83405000      8.77618000     14.42435000
C           2.86967800      9.10106400     16.31132100
H           3.03641000     10.16685800     16.27265700
N           2.21461000      8.40402500     15.28374800
N           3.24326000      8.29141100     17.30516200
O           0.97696900      8.53712800     12.85307000
H           1.40071400      8.04028000     12.15333400
H           0.05632600      8.27547800     12.85103400
          18
 G =        0.071742 Gcorr = 0.095052 a.u. Nimag =   1 Frame:    16 Step:    16 Geom:    16
C           2.06806700      6.72159300     15.65751300
C           2.90265100      6.87076000     16.81872000
C           3.15971600      5.77183800     17.64554900
C           2.58611300      4.56169500     17.30104100
C           1.76754100      4.42439000     16.15846700
C           1.49483800      5.49173700     15.32188300
H           3.79113100      5.88737200     18.52359100
H           2.76371700      3.68452200     17.92074700
H           1.34306100      3.44563600     15.93796000
H           0.86640400      5.38586300     14.44541700
H           1.51557500      8.22799100     14.22217100
C           2.79570400      8.83727500     15.85599600
H           2.92523500      9.88221700     15.61771700
N           2.01402500      7.98244500     15.06318900
N           3.33021000      8.19986400     16.90042100
O           1.18159800      9.38883800     12.87610700
H           1.69044300      9.38533900     12.06620700
H           0.32397100      9.75063100     12.65731600
          18
 G =        0.070865 Gcorr = 0.094728 a.u. Nimag =   0 Frame:    17 Step:    17 Geom:    17
C           2.19846500      6.99720300     15.65614700
C           2.23916900      6.88609900     17.08865000
C           2.82740600      5.76805300     17.68980900
C           3.35607000      4.79684200     16.85929300
C           3.31141000      4.91465600     15.45261400
C           2.73680600      6.00740600     14.82881000
H           2.85733700      5.68539800     18.77419500
H           3.82187600      3.91270700     17.29142900
H           3.74460700      4.11660900     14.85089400
H           2.70059000      6.10053900     13.75073400
H           1.37431500      8.57601600     14.46108200
C           1.23601000      8.77941800     16.62398300
H           0.72894800      9.72859600     16.70851400
N           1.55745500      8.20568100     15.38367600
N           1.63015300      8.01504900     17.64537800
O           1.51738100      8.45674600     12.66497300
H           1.02769700      7.78660300     12.18855200
H           2.38430400      8.49638400     12.26128000
          18
 G =        0.070955 Gcorr = 0.094818 a.u. Nimag =   0 Frame:    18 Step:    18 Geom:    18
C           2.21165500      7.03925100     15.67073100
C           1.89089300      6.56050700     16.98753100
C           2.79504300      5.74644300     17.67835300
C           3.98519500      5.43124600     17.04851000
C           4.29170100      5.90633900     15.75431100
C           3.41878100      6.71252600     15.04615400
H           2.55072400      5.38496300     18.67497100
H           4.71315700      4.80001600     17.55544600
H           5.24541700      5.62400200     15.31009800
H           3.65071800      7.07836000     14.05388200
H           1.03932000      8.28880400     14.38067000
C           0.19431900      7.77877700     16.32092900
H          -0.75120100      8.29756500     16.27534200
N           1.12142200      7.80997300     15.26715200
N           0.62981000      7.04529800     17.34814800
O           1.71529300      8.72916800     12.76520600
H           2.48527500      9.29529900     12.71299600
H           1.83247800      8.05146400     12.09958100
          18
 G =        0.070906 Gcorr = 0.094768 a.u. Nimag =   0 Frame:    19 Step:    19 Geom:    19
C           2.19622300      7.08986000     15.68377500
C           1.83299100      6.56347300     16.97105100
C           2.73823000      5.77301400     17.68738700
C           3.97133000      5.52765200     17.11137000
C           4.31943200      6.04923200     15.84590400
C           3.44653600      6.83361400     15.11363100
H           2.46172300      5.37529900     18.66155200
H           4.70151700      4.91670400     17.63953200
H           5.30594800      5.82134500     15.44407800
H           3.71032200      7.23490500     14.14326100
H           1.03300400      8.31864700     14.36579200
C           0.11737000      7.72155100     16.24826700
H          -0.84755100      8.19856600     16.16710700
N           1.09305800      7.82122500     15.24375600
N           0.53470600      6.98203300     17.27868900
O           1.76667700      8.82895600     12.79672200
H           1.94739400      8.17340300     12.12319500
H           2.51109100      9.43052500     12.79494600
          18
 G =        0.070945 Gcorr = 0.094808 a.u. Nimag =   0 Frame:    20 Step:    20 Geom:    20
C           2.22417300      7.02123600     15.64089100
C           1.80469200      6.26040400     16.78598500
C           2.75715800      5.68914000     17.63681100
C           4.09128700      5.88664800     17.33087100
C           4.49401900      6.63582900     16.20340400
C           3.57660700      7.21278500     15.34382700
H           2.43799800      5.11357300     18.50311600
H           4.86072500      5.45706400     17.97025800
H           5.55997000      6.75674200     16.01434600
H           3.88205300      7.78771200     14.47872900
H           1.00971300      8.00522300     14.17227200
C          -0.01545600      6.94395500     15.77272400
H          -1.04685700      7.12384200     15.50996000
N           1.05322000      7.44520700     15.01271400
N           0.40706200      6.24037100     16.82594300
O           1.83224200      8.89327600     12.83235400
H           2.33892200      9.68143100     13.02766200
H           2.33247200      8.40556800     12.17815100
          18
 G =        0.070908 Gcorr = 0.094771 a.u. Nimag =   0 Frame:    21 Step:    21 Geom:    21
C           2.20438800      7.05211200     15.67005100
C           2.42848900      5.76570900     16.27089100
C           2.77274200      5.67290100     17.62377700
C           2.88470600      6.85089400     18.33953500
C           2.66259400      8.11047900     17.74057400
C           2.32108900      8.23486400     16.40592300
H           2.94201000      4.69845900     18.07702700
H           3.15096600      6.81780400     19.39471200
H           2.76572000      9.00330800     18.35607500
H           2.15008100      9.19892400     15.94377900
H           1.67087500      7.50553600     13.64281400
C           1.92210000      5.40794400     14.16792500
H           1.71210900      4.93334100     13.22143400
N           1.88441300      6.80129500     14.33581300
N           2.24185900      4.77664200     15.30016200
O           1.46139200      9.23730300     13.17627400
H           0.73432900      9.74180200     13.54079100
H           2.22013800      9.82068800     13.17245300
