18
 generated by VMD
  C1         2.020000        6.840000       15.750000
  C2         3.030000        6.890000       16.770000
  C3         3.130000        5.920000       17.750000
  C4         2.220000        4.840000       17.680000
  C5         1.210000        4.730000       16.680000
  C6         1.090000        5.740000       15.680000
  H7         3.890000        6.000000       18.530001
  H8         2.250000        4.160000       18.520000
  H9         0.560000        3.880000       16.800001
  H10        0.310000        5.700001       14.930000
  H11        1.600000        8.290001       14.270000
  C12        3.260000        8.650001       15.610001
  H13        3.460000        9.630001       15.200001
  N14        2.190000        7.980000       15.020000
  N15        3.840000        7.990000       16.600000
  OW         0.810000        8.900001       12.440001
  HW1        1.400000        8.920000       11.630001
  HW2       -0.060000        9.360001       12.230000
18
 generated by VMD
  C1         2.010000        6.790000       15.700001
  C2         3.000000        6.930000       16.740000
  C3         3.180000        5.900001       17.740000
  C4         2.240000        4.780000       17.700001
  C5         1.280000        4.720000       16.650002
  C6         1.170000        5.660000       15.660001
  H7         3.970000        5.980000       18.490002
  H8         2.330000        3.990000       18.440001
  H9         0.710000        3.800000       16.690001
  H10        0.390000        5.490000       14.920001
  H11        1.540000        8.260000       14.240000
  C12        3.130000        8.680000       15.570001
  H13        3.330000        9.620001       15.080000
  N14        2.130000        7.960001       14.990001
  N15        3.720000        8.060000       16.580002
  OW         0.920000        8.990001       12.600001
  HW1        0.030000        8.610001       12.330000
  HW2        1.180000        9.720000       11.960001
18
 generated by VMD
  C1         2.030000        6.920000       15.810001
  C2         3.110000        6.840000       16.710001
  C3         3.030000        5.910000       17.750000
  C4         2.010000        4.970000       17.800001
  C5         0.950000        5.050000       16.860001
  C6         0.980000        5.970000       15.820000
  H7         3.850000        5.780000       18.440001
  H8         2.010000        4.190001       18.550001
  H9         0.110000        4.400000       17.070002
  H10        0.230000        5.980000       15.040001
  H11        1.700000        8.270000       14.230001
  C12        3.620000        8.300000       15.250001
  H13        4.140000        9.070001       14.700001
  N14        2.330000        7.950000       14.950001
  N15        4.070000        7.780001       16.350000
  OW         0.670000        8.860001       12.650002
  HW1        0.230000        9.740001       12.480000
  HW2        0.840000        8.390000       11.790000
18
 generated by VMD
  C1         2.010000        6.990001       15.870001
  C2         3.180000        6.750000       16.639999
  C3         3.200000        5.720000       17.610001
  C4         2.030000        4.930000       17.770000
  C5         0.830000        5.230000       17.020000
  C6         0.840000        6.210001       16.030001
  H7         4.030000        5.570001       18.290001
  H8         1.970000        4.220000       18.590000
  H9        -0.070000        4.630000       17.070002
  H10        0.050000        6.360001       15.300001
  H11        1.750000        8.370000       14.270000
  C12        3.640000        8.300000       15.270000
  H13        4.190001        9.070001       14.750000
  N14        2.310000        8.030001       15.030001
  N15        4.120000        7.710000       16.330002
  OW         0.700000        8.720000       12.430000
  HW1       -0.270000        8.740000       12.670001
  HW2        0.800000        8.920000       11.460000
18
 generated by VMD
  C1         2.020000        6.780000       15.740002
  C2         3.080000        6.850000       16.750000
  C3         3.100000        5.920000       17.750000
  C4         2.090000        4.930000       17.740000
  C5         1.000000        4.940000       16.890001
  C6         0.980000        5.820000       15.820000
  H7         3.890000        5.830000       18.490002
  H8         2.000000        4.170000       18.510000
  H9         0.190000        4.230000       16.940001
  H10        0.100000        5.880000       15.190001
  H11        1.870000        8.160001       14.030001
  C12        3.470000        8.460000       15.310000
  H13        3.910000        9.240000       14.700001
  N14        2.280000        7.870001       14.910001
  N15        3.970000        7.920001       16.390001
  OW         0.810000        8.980000       12.640000
  HW1        0.420000        9.870001       12.880001
  HW2        0.610000        8.780001       11.680001
18
 generated by VMD
  C1         2.070000        6.840000       15.650001
  C2         3.080000        6.860001       16.660002
  C3         3.040000        5.930000       17.730001
  C4         1.920000        5.130000       17.930000
  C5         0.930000        5.140000       16.890001
  C6         0.990000        5.950000       15.790001
  H7         3.710000        6.100000       18.560001
  H8         1.790000        4.500000       18.810001
  H9         0.040000        4.540000       17.080000
  H10        0.260000        6.020000       14.990001
  H11        1.920000        8.160001       13.990001
  C12        3.640000        8.260000       15.210000
  H13        4.140000        9.060000       14.670001
  N14        2.480000        7.740001       14.710001
  N15        4.050000        7.760000       16.320002
  OW         0.650000        8.880001       12.930001
  HW1        0.540000        9.870001       13.080001
  HW2        0.030000        8.580000       12.210001
18
 generated by VMD
  C1         1.890000        6.830000       15.870001
  C2         3.140000        6.750000       16.550001
  C3         3.240000        5.810000       17.610001
  C4         2.160000        4.990000       17.900002
  C5         0.940000        5.070000       17.190001
  C6         0.780000        5.990000       16.140001
  H7         4.120000        5.720000       18.240002
  H8         2.320000        4.190001       18.610001
  H9         0.200000        4.310000       17.420002
  H10       -0.100000        6.020000       15.510001
  H11        1.390000        8.110001       14.280001
  C12        3.310000        8.360001       15.200001
  H13        3.660000        9.270000       14.730000
  N14        2.070000        7.830000       14.970001
  N15        3.970000        7.740001       16.130001
  OW         1.150000        9.080001       12.460001
  HW1        0.540000        8.750001       11.740000
  HW2        1.500000        9.980000       12.200001
18
 generated by VMD
  C1         1.980000        6.960001       15.820000
  C2         3.070000        6.900001       16.760002
  C3         3.120000        5.830000       17.670000
  C4         2.130000        4.850000       17.590000
  C5         1.140000        4.880000       16.610001
  C6         1.040000        5.950000       15.740002
  H7         3.910000        5.700001       18.410000
  H8         2.210000        3.960000       18.220001
  H9         0.450000        4.050000       16.510000
  H10        0.230000        5.840001       15.040001
  H11        1.650000        8.450001       14.310001
  C12        3.410000        8.600000       15.510001
  H13        3.840000        9.440001       15.000001
  N14        2.240000        8.100000       15.050001
  N15        3.930000        7.900000       16.520000
  OW         0.740000        8.660001       12.670001
  HW1       -0.180000        8.430000       12.340001
  HW2        1.190000        9.250001       11.990000
18
 generated by VMD
  C1         2.120000        6.760001       15.670000
  C2         3.040000        6.930000       16.750000
  C3         2.970000        5.960000       17.800001
  C4         2.020000        4.940000       17.780001
  C5         1.150000        4.760000       16.660002
  C6         1.200000        5.680000       15.560001
  H7         3.700000        6.130000       18.580000
  H8         1.890000        4.350000       18.670002
  H9         0.370000        4.020000       16.670000
  H10        0.660000        5.640000       14.620000
  H11        1.770000        8.170000       14.150001
  C12        3.520000        8.450001       15.340000
  H13        3.940000        9.360001       14.940001
  N14        2.390000        7.820001       14.860001
  N15        3.870000        8.040000       16.530001
  OW         0.600000        9.070001       12.840000
  HW1        0.430000       10.020000       13.080001
  HW2       -0.190000        8.690001       12.370001
18
 generated by VMD
  C1         2.600000        6.920000       15.550001
  C2         2.410000        6.970000       16.960001
  C3         2.560000        5.820000       17.720001
  C4         2.750000        4.630000       17.040001
  C5         2.940000        4.550000       15.650001
  C6         2.910000        5.740000       14.880000
  H7         2.390000        5.810000       18.790001
  H8         2.900000        3.760000       17.670000
  H9         3.150000        3.570000       15.250001
  H10        3.060000        5.580000       13.820001
  H11        1.960000        8.660001       14.310001
  C12        2.110000        8.970000       16.360001
  H13        1.880000       10.020000       16.400002
  N14        2.290000        8.270000       15.180001
  N15        2.060000        8.200001       17.430000
  OW         0.410000        8.600000       12.880001
  HW1        0.310000        7.610001       12.890000
  HW2       -0.440000        9.030001       13.180000
18
 generated by VMD
  C1         2.090000        6.730000       15.640001
  C2         2.330000        6.880000       17.030001
  C3         3.200000        6.010000       17.690001
  C4         3.780000        4.910000       16.990002
  C5         3.430000        4.710000       15.620001
  C6         2.620000        5.610001       14.950001
  H7         3.330000        6.240000       18.740002
  H8         4.410000        4.180000       17.480000
  H9         3.870000        3.900000       15.040001
  H10        2.460000        5.490000       13.890000
  H11        1.150000        8.080000       14.300001
  C12        1.160000        8.560000       16.390001
  H13        0.540000        9.450001       16.360001
  N14        1.300000        7.770000       15.250001
  N15        1.630000        8.040000       17.470001
  OW         1.230000        9.180000       12.800001
  HW1        1.680000       10.030001       12.530001
  HW2        0.760000        8.790001       12.010001
18
 generated by VMD
  C1         1.880000        6.670001       15.760001
  C2         2.570000        6.930000       16.940001
  C3         3.260000        5.930000       17.640001
  C4         3.290000        4.670000       17.060001
  C5         2.530000        4.420000       15.910001
  C6         1.810000        5.370000       15.220001
  H7         3.810000        6.220000       18.530001
  H8         3.850000        3.840000       17.470001
  H9         2.540000        3.400000       15.540000
  H10        1.280000        5.090000       14.310001
  H11        1.050000        8.120001       14.410001
  C12        1.870000        8.810000       16.190001
  H13        1.640000        9.860001       16.049999
  N14        1.400000        7.880001       15.320001
  N15        2.570000        8.320000       17.180000
  OW         1.400000        9.330000       12.660000
  HW1        2.270000        8.950001       12.350000
  HW2        1.180000       10.140000       12.110001
18
 generated by VMD
  C1         1.950000        7.080000       15.890001
  C2         3.060000        6.840000       16.720001
  C3         3.220000        5.610001       17.320002
  C4         2.270000        4.580000       17.090000
  C5         1.140000        4.870000       16.270000
  C6         0.900000        6.130000       15.730000
  H7         4.030000        5.370000       17.990002
  H8         2.400000        3.660000       17.660000
  H9         0.420000        4.080000       16.090000
  H10        0.030000        6.290000       15.100001
  H11        1.540000        8.690001       14.660001
  C12        3.270000        8.850000       16.030001
  H13        3.570000        9.880000       15.910001
  N14        2.120000        8.320000       15.390000
  N15        3.870000        7.990000       16.810001
  OW         0.910000        8.420001       12.620001
  HW1        1.370000        7.640000       12.200001
  HW2        0.700000        9.100000       11.910001
18
 generated by VMD
  C1         2.290000        6.750000       15.580001
  C2         2.770000        6.920000       16.920000
  C3         2.800000        5.870000       17.860001
  C4         2.310000        4.610000       17.410000
  C5         1.790000        4.460000       16.090000
  C6         1.700000        5.560000       15.140000
  H7         3.180000        5.880000       18.880001
  H8         2.280000        3.820000       18.160002
  H9         1.450000        3.490000       15.760001
  H10        1.190000        5.470000       14.190001
  H11        2.190000        8.300000       14.090000
  C12        3.040000        8.820001       16.030001
  H13        3.350000        9.830000       15.800000
  N14        2.420000        8.010000       15.020000
  N15        3.220000        8.200001       17.160000
  OW         0.580000        9.200000       12.610001
  HW1       -0.110000        8.700001       12.080001
  HW2        0.130000        9.950001       13.110001
18
 generated by VMD
  C1         1.880000        6.830000       15.840001
  C2         2.860000        6.920000       16.880001
  C3         3.290000        5.750000       17.590000
  C4         2.730000        4.550000       17.150000
  C5         1.790000        4.490000       16.090000
  C6         1.290000        5.660000       15.460001
  H7         4.030000        5.850000       18.370001
  H8         2.890000        3.610000       17.660000
  H9         1.310000        3.580000       15.750000
  H10        0.520000        5.650000       14.700001
  H11        1.210000        8.420001       14.580001
  C12        2.560000        8.850000       16.060001
  H13        2.600000        9.920000       15.950001
  N14        1.710000        8.090000       15.380001
  N15        3.240000        8.260000       16.950001
  OW         1.290000        9.020000       12.510000
  HW1        2.150000        8.840000       12.030001
  HW2        0.740000        9.650001       11.980000
18
 generated by VMD
  C1         1.830000        6.780000       15.810001
  C2         2.810000        6.930000       16.830002
  C3         3.270000        5.780000       17.550001
  C4         2.790000        4.530000       17.160000
  C5         1.820000        4.390000       16.140001
  C6         1.240000        5.550000       15.550001
  H7         4.070000        5.850000       18.280001
  H8         3.080000        3.570000       17.590000
  H9         1.420000        3.420000       15.890001
  H10        0.490000        5.410000       14.780001
  H11        1.280000        8.270000       14.420000
  C12        2.530000        8.900001       16.090000
  H13        2.650000        9.960001       15.920001
  N14        1.760000        8.100000       15.290001
  N15        3.190000        8.260000       17.000000
  OW         1.350000        9.160001       12.520000
  HW1        1.860000        8.920000       11.690001
  HW2        1.080000       10.120001       12.480000
18
 generated by VMD
  C1         2.210000        6.950001       15.610001
  C2         2.230000        6.910000       17.060001
  C3         2.870000        5.810000       17.700001
  C4         3.420000        4.810000       16.920000
  C5         3.290000        4.830000       15.500001
  C6         2.650000        5.890000       14.810000
  H7         2.930000        5.800000       18.790001
  H8         3.950000        3.970000       17.340000
  H9         3.660000        3.940000       14.990001
  H10        2.480000        5.910000       13.740001
  H11        1.360000        8.460000       14.440001
  C12        1.240000        8.690001       16.530001
  H13        0.720000        9.640000       16.600000
  N14        1.530000        8.100000       15.370001
  N15        1.660000        8.050001       17.620001
  OW         1.500000        8.610001       12.700001
  HW1        1.220000        7.840000       12.130001
  HW2        2.330000        9.020000       12.330000
18
 generated by VMD
  C1         2.400000        7.060000       15.710001
  C2         1.890000        6.470000       16.920000
  C3         2.690000        5.530000       17.640001
  C4         3.960000        5.210000       17.130001
  C5         4.470000        5.910000       16.020000
  C6         3.710000        6.800000       15.260000
  H7         2.330000        5.210000       18.610001
  H8         4.550000        4.410000       17.560001
  H9         5.510000        5.790000       15.750000
  H10        4.150000        7.390000       14.460001
  H11        1.290000        8.550000       14.510001
  C12        0.340000        7.800000       16.230000
  H13       -0.570000        8.390000       16.220001
  N14        1.370000        7.950000       15.320001
  N15        0.640000        7.010000       17.250000
  OW         1.270000        8.840000       12.440001
  HW1        1.750000        9.380000       11.750001
  HW2        1.270000        7.880001       12.170000
18
 generated by VMD
  C1         2.340000        6.820001       15.640001
  C2         1.960000        6.570000       16.980001
  C3         2.750000        5.820000       17.850000
  C4         4.010000        5.460000       17.350002
  C5         4.360000        5.740000       15.970001
  C6         3.510000        6.390000       15.070001
  H7         2.460000        5.680000       18.880001
  H8         4.730000        5.080000       18.070000
  H9         5.350000        5.460000       15.640001
  H10        3.700000        6.500000       14.010000
  H11        1.200000        7.850000       14.140000
  C12        0.300000        7.650001       16.120001
  H13       -0.620000        8.210000       15.990001
  N14        1.270000        7.540000       15.100001
  N15        0.670000        7.170000       17.240002
  OW         1.500000        9.230000       12.560000
  HW1        1.480000        9.500000       11.600000
  HW2        1.870000        9.990001       13.110001
18
 generated by VMD
  C1         2.250000        7.220001       15.830001
  C2         1.800000        6.280000       16.840002
  C3         2.770000        5.540000       17.580002
  C4         4.120000        5.790000       17.360001
  C5         4.540000        6.700000       16.310001
  C6         3.610000        7.390000       15.530001
  H7         2.370000        4.770000       18.230001
  H8         4.760000        5.100000       17.900002
  H9         5.600000        6.810000       16.150002
  H10        3.970000        8.070001       14.760000
  H11        0.960000        8.380001       14.500000
  C12        0.090000        6.940000       15.810001
  H13       -0.940000        7.150001       15.540000
  N14        1.080000        7.690001       15.230001
  N15        0.380000        6.180000       16.800001
  OW         1.900000        8.940001       12.620001
  HW1        1.680000        9.320001       11.720000
  HW2        2.660000        8.290001       12.530001
18
 generated by VMD
  C1         1.980000        7.150001       15.930000
  C2         2.510000        5.850000       16.280001
  C3         3.170000        5.670000       17.530001
  C4         3.090000        6.740000       18.430000
  C5         2.490000        7.980000       18.100000
  C6         1.980000        8.250000       16.850000
  H7         3.460000        4.640000       17.730001
  H8         3.380000        6.540000       19.460001
  H9         2.580000        8.700001       18.910000
  H10        1.650000        9.240000       16.560001
  H11        1.290000        7.690001       13.970001
  C12        1.760000        5.690000       14.310001
  H13        1.580000        5.310000       13.310001
  N14        1.580000        6.980000       14.630001
  N15        2.340000        4.980000       15.190001
  OW         1.620000        9.300001       12.740001
  HW1        1.080000        9.650001       11.970000
  HW2        2.590000        9.270000       12.480000
