25
 generated by VMD
  C1         3.440000       10.530001       10.680000
  C2         2.590000        9.720000        9.960001
  C3         3.010000        8.400001        9.580001
  C4         4.260000        8.050001       10.060000
  C5         5.050000        8.930000       10.780001
  N6         4.650001       10.160000       11.050000
  H7         2.400000        7.820001        8.890000
  H8         3.150000       11.550001       10.890001
  H9         1.580000       10.060000        9.800000
  H10        4.770000        7.100000        9.930000
  H11        6.000000        8.590000       11.180000
  P1         5.680000       12.140001       13.880000
  O2         4.470000       12.960000       13.910000
  O3         6.700000       12.450000       15.020000
  H4         6.070001       12.570001       15.740002
  O5         5.580000       10.559999       14.000001
  H6         6.490001       10.250001       13.890000
  O7         6.450000       12.220000       12.500000
  H8         5.800000       11.640000       12.080001
  OW         7.990000        9.550000       13.780001
  HW1        8.630000        8.800000       13.960000
  HW2        8.500000       10.410000       13.730000
  OW         4.390000       13.050001       16.570000
  HW1        4.010000       13.020000       15.650001
  HW2        3.880000       13.710001       17.120001
25
 generated by VMD
  C1         4.730000       10.740000       10.200001
  C2         4.700000        9.420000        9.840000
  C3         3.640000        8.630000       10.340000
  C4         2.600000        9.270000       11.020000
  C5         2.650000       10.650001       11.240001
  N6         3.740000       11.370001       10.860001
  H7         3.590000        7.560000       10.150002
  H8         5.480000       11.360001        9.720000
  H9         5.450000        8.950001        9.220000
  H10        1.810000        8.670000       11.460000
  H11        1.850000       11.170001       11.770000
  P1         5.560000       11.300000       13.830000
  O2         4.260000       10.910001       14.400001
  O3         6.670001       11.540001       14.860001
  H4         6.130000       11.970000       15.540000
  O5         6.290000       10.320001       12.870001
  H6         7.200000       10.640000       12.810000
  O7         5.570001       12.540001       12.820001
  H8         5.090000       12.140001       12.090001
  OW         8.950001       11.320001       13.100000
  HW1        9.950001       11.220001       13.070001
  HW2        8.690001       11.850000       13.900002
  OW         4.740000       12.160001       16.790001
  HW1        4.150000       11.990000       16.000000
  HW2        4.200000       12.110001       17.630001
25
 generated by VMD
  C1         2.650000       10.290001       11.440001
  C2         2.840000       10.910001       10.210000
  C3         3.750000       10.410000        9.330000
  C4         4.540000        9.370001        9.720000
  C5         4.350000        8.830000       11.010000
  N6         3.450000        9.320001       11.890000
  H7         3.820000       10.780001        8.320000
  H8         1.870000       10.600000       12.130001
  H9         2.100000       11.610001        9.830000
  H10        5.400000        9.000000        9.180000
  H11        4.990000        8.050001       11.420001
  P1         5.900001       10.950001       13.880000
  O2         6.410000        9.700001       14.440001
  O3         6.480000       12.260000       14.520000
  H4         6.450000       12.020000       15.450001
  O5         6.140000       11.280001       12.390001
  H6         6.220000       12.240001       12.440001
  O7         4.360000       11.080000       14.040001
  H8         4.160000       10.410000       13.370000
  OW         6.740000       13.900002       12.090001
  HW1        7.420001       14.380001       11.530000
  HW2        6.290000       14.550000       12.700001
  OW         6.250000       11.740000       17.150000
  HW1        5.330000       11.430000       17.400002
  HW2        6.830000       11.770000       17.970001
25
 generated by VMD
  C1         3.070000       10.860001       10.360001
  C2         2.880000        9.950001        9.330000
  C3         3.090000        8.610001        9.550000
  C4         3.500000        8.200001       10.810001
  C5         3.610000        9.170000       11.800001
  N6         3.440000       10.470000       11.590000
  H7         2.890000        7.950000        8.710001
  H8         2.770000       11.890000       10.220001
  H9         2.440000       10.310000        8.410000
  H10        3.790000        7.160000       10.920000
  H11        3.890000        8.900001       12.810000
  P1         5.930000       11.390000       13.830000
  O2         5.280000       10.270000       14.520000
  O3         6.880000       12.170000       14.740001
  H4         6.620001       11.770000       15.580001
  O5         6.790000       11.190001       12.560000
  H6         7.200000       12.050000       12.420001
  O7         4.890000       12.420001       13.270000
  H8         4.330000       11.790000       12.810000
  OW         7.630000       14.000001       12.600001
  HW1        7.900000       14.960001       12.460001
  HW2        6.950001       13.940001       13.330001
  OW         6.320000       10.690001       17.170002
  HW1        5.710001       10.100000       16.650002
  HW2        6.960001       10.130000       17.700001
25
 generated by VMD
  C1         4.270000        8.890000       11.640000
  C2         2.890000        9.170000       11.630001
  C3         2.370000        9.950001       10.580001
  C4         3.280000       10.410000        9.570000
  C5         4.620000       10.080000        9.650001
  N6         5.130000        9.380000       10.680000
  H7         1.310000       10.180000       10.600000
  H8         4.720000        8.310000       12.440001
  H9         2.280000        8.720000       12.400000
  H10        2.990000       11.140001        8.810000
  H11        5.310000       10.690001        9.080001
  P1         5.650000       11.700001       13.570002
  O2         4.350000       12.300000       13.310001
  O3         6.510000       12.540001       14.520000
  H4         5.880000       12.890000       15.160000
  O5         5.670000       10.260000       14.280001
  H6         6.610000       10.040001       14.340000
  O7         6.560000       11.350001       12.290001
  H8         5.950000       10.810001       11.770000
  OW         8.370000        9.990001       14.380001
  HW1        8.870000       10.760001       14.780001
  HW2        9.010000        9.280001       14.100000
  OW         4.460000       13.470001       16.240002
  HW1        3.900000       12.920000       16.860001
  HW2        3.950000       13.660001       15.400001
25
 generated by VMD
  C1         4.020000        8.370000       11.480000
  C2         2.990000        7.900000       10.710001
  C3         2.370000        8.790001        9.770000
  C4         2.970000       10.050000        9.560000
  C5         4.140000       10.350000       10.300001
  N6         4.650001        9.540001       11.240001
  H7         1.460000        8.560000        9.220000
  H8         4.470000        7.740001       12.240001
  H9         2.600000        6.910000       10.900001
  H10        2.620000       10.820000        8.870000
  H11        4.580000       11.340000       10.220001
  P1         5.500000       12.020000       13.790001
  O2         5.060000       12.660000       12.590000
  O3         6.500000       12.780001       14.680000
  H4         7.270000       12.850000       14.100000
  O5         4.500000       11.510000       14.860001
  H6         5.060000       11.150000       15.560001
  O7         6.230000       10.690001       13.450001
  H8         5.540000       10.380001       12.850000
  OW         6.480000       10.790000       16.880001
  HW1        7.000000       10.370001       17.610001
  HW2        7.080000       11.370001       16.330002
  OW         8.330001       13.070001       12.780001
  HW1        9.250001       13.440001       12.670001
  HW2        7.760000       13.350000       12.020000
25
 generated by VMD
  C1         4.010000        8.340000       11.320001
  C2         3.440000        7.880001       10.180000
  C3         2.790000        8.800000        9.350000
  C4         2.630000       10.130000        9.770000
  C5         3.220000       10.530001       11.030001
  N6         3.910000        9.620001       11.760000
  H7         2.430000        8.550000        8.360001
  H8         4.580000        7.670000       11.950001
  H9         3.590000        6.860001        9.870001
  H10        2.100000       10.880001        9.190001
  H11        3.100000       11.520000       11.450001
  P1         5.780000       11.890000       13.750001
  O2         5.410000       12.780001       12.660000
  O3         7.010000       12.390001       14.580001
  H4         7.580000       12.760000       13.900002
  O5         4.840000       11.570001       14.960001
  H6         5.410000       11.530000       15.740002
  O7         6.150000       10.460000       13.280001
  H8         5.290000       10.180000       12.940001
  OW         6.130000       10.570001       17.080000
  HW1        5.890000        9.720000       16.620001
  HW2        6.910000       10.420000       17.680000
  OW         8.110001       13.740001       12.480000
  HW1        8.510000       14.550000       12.050000
  HW2        7.160000       13.630000       12.170000
25
 generated by VMD
  C1         4.650001        8.250000       11.260000
  C2         3.780000        7.520000       10.470000
  C3         2.520000        8.090000       10.160000
  C4         2.240000        9.360001       10.700001
  C5         3.240000       10.000000       11.420001
  N6         4.410000        9.480000       11.710000
  H7         1.650000        7.670000        9.670001
  H8         5.580000        7.820001       11.610001
  H9         3.990000        6.540000       10.060000
  H10        1.260000        9.810000       10.620001
  H11        3.120000       11.010000       11.800001
  P1         5.820000       12.210001       13.460001
  O2         5.940001       12.880001       12.180000
  O3         6.700000       12.850000       14.550000
  H4         7.480000       13.180000       14.090000
  O5         4.460000       12.060001       14.160000
  H6         4.700000       11.650001       14.990001
  O7         6.290000       10.690001       13.450001
  H8         5.620000       10.300001       12.880001
  OW         4.950000       10.490000       16.310001
  HW1        4.430000       10.390000       17.160000
  HW2        5.930000       10.470000       16.510000
  OW         8.600000       13.960000       13.060001
  HW1        9.550000       14.170000       12.820001
  HW2        8.000000       14.180001       12.300000
25
 generated by VMD
  C1         2.640000        9.890000       11.920000
  C2         1.680000        9.630001       10.940001
  C3         2.050000        9.330000        9.590000
  C4         3.420000        9.240000        9.350000
  C5         4.310000        9.490001       10.440001
  N6         3.920000        9.750000       11.700001
  H7         1.330000        9.200000        8.790001
  H8         2.360000       10.230000       12.920000
  H9         0.640000        9.710001       11.220001
  H10        3.880000        9.100000        8.380001
  H11        5.370000        9.580001       10.230000
  P1         6.020000       11.320001       14.050001
  O2         5.050000       10.870000       15.060000
  O3         7.070000       12.410001       14.540001
  H4         6.540000       12.940001       15.150002
  O5         6.940000       10.290001       13.330001
  H6         7.580000       10.810001       12.840000
  O7         5.350000       11.980000       12.810000
  H8         4.870000       11.200000       12.520000
  OW         8.840000       11.730001       12.030001
  HW1        9.390000       11.880001       11.210001
  HW2        8.760000       12.590000       12.540001
  OW         5.510000       13.450001       16.460001
  HW1        5.490000       13.850001       17.370001
  HW2        4.770000       12.770000       16.380001
25
 generated by VMD
  C1         2.420000       10.160000       12.160001
  C2         2.200000        8.880001       11.590000
  C3         2.820000        8.630000       10.320001
  C4         3.700000        9.560000        9.790000
  C5         3.850000       10.770000       10.480001
  N6         3.220000       11.090001       11.610001
  H7         2.540000        7.780001        9.700001
  H8         2.080000       10.520000       13.130001
  H9         1.520000        8.210000       12.100000
  H10        4.190001        9.190001        8.890000
  H11        4.450000       11.580001       10.080000
  P1         5.910000       11.240001       13.740001
  O2         4.850000       10.540000       14.420000
  O3         7.190001       11.500001       14.540001
  H4         6.780000       11.930000       15.310000
  O5         6.570000       10.660001       12.480000
  H6         7.450001       11.050000       12.430000
  O7         5.510000       12.620001       13.090000
  H8         5.090000       12.240001       12.310000
  OW         8.980000       11.630001       11.920000
  HW1        9.300001       12.300000       12.590000
  HW2        9.200000       11.950001       11.000000
  OW         5.670000       12.590000       16.710001
  HW1        5.840001       12.730000       17.690001
  HW2        4.870000       12.020000       16.590000
25
 generated by VMD
  C1         2.100000       11.060000       11.350001
  C2         1.300000       10.330000       10.470000
  C3         1.710000        9.120001       10.040001
  C4         2.900000        8.630000       10.510000
  C5         3.700000        9.470000       11.280001
  N6         3.310000       10.640000       11.750001
  H7         0.950000        8.610001        9.460000
  H8         1.740000       12.030001       11.680001
  H9         0.390000       10.790000       10.100000
  H10        3.250000        7.680000       10.130000
  H11        4.670000        9.150001       11.670000
  P1         6.550000       10.960001       13.740001
  O2         6.190000        9.680000       14.220000
  O3         7.510000       11.790000       14.670001
  H4         7.130001       11.660000       15.550001
  O5         7.220001       11.210001       12.320002
  H6         7.210000       12.170000       12.240001
  O7         5.320000       11.870001       13.460001
  H8         4.820000       11.260000       12.900001
  OW         7.060000       13.700001       11.650001
  HW1        7.350000       14.150001       10.810001
  HW2        6.200000       14.100000       11.970000
  OW         6.980000       11.590000       17.220001
  HW1        6.170001       11.470001       17.800001
  HW2        7.800000       11.420001       17.760002
25
 generated by VMD
  C1         4.030000        9.680000       10.990001
  C2         3.230000        8.710001       10.380001
  C3         1.830000        8.810000       10.580001
  C4         1.340000        9.870001       11.340000
  C5         2.230000       10.760001       11.860001
  N6         3.550000       10.700001       11.690001
  H7         1.190000        8.050001       10.130000
  H8         5.100000        9.610001       10.840001
  H9         3.740000        7.950000        9.810000
  H10        0.310000        9.920000       11.680001
  H11        1.870000       11.680001       12.320002
  P1         6.500000       11.170001       13.460001
  O2         6.540000        9.740001       13.550000
  O3         7.470000       11.990000       14.400001
  H4         7.440000       11.440001       15.190001
  O5         6.690001       11.940001       12.090001
  H6         6.460000       12.850000       12.290001
  O7         5.080000       11.730001       13.780001
  H8         4.500000       11.270000       13.160001
  OW         6.090000       14.530001       12.760000
  HW1        6.550000       15.400001       12.560000
  HW2        5.940001       14.460001       13.750001
  OW         7.570000       10.190001       16.280001
  HW1        7.150001        9.480000       15.720000
  HW2        7.670000        9.860001       17.220001
25
 generated by VMD
  C1         3.330000        8.790001       12.690001
  C2         2.610000        9.920000       12.490001
  C3         2.780000       10.640000       11.310000
  C4         3.840000       10.250001       10.440001
  C5         4.610000        9.110001       10.820000
  N6         4.320000        8.360001       11.950001
  H7         2.110000       11.420001       10.990001
  H8         3.200000        8.330001       13.670001
  H9         1.810000       10.200001       13.170000
  H10        4.130000       10.760001        9.530001
  H11        5.480000        8.720000       10.300001
  P1         6.270000       11.520000       13.050001
  O2         6.310000       11.650001       11.590000
  O3         7.200000       12.510000       13.850001
  H4         6.760001       13.330001       13.590001
  O5         4.920000       11.780001       13.760000
  H6         4.900000       11.290001       14.590001
  O7         6.410000       10.030001       13.590001
  H8         5.750000        9.680000       12.980001
  OW         4.770000       10.160000       16.010000
  HW1        5.750000       10.010000       16.090000
  HW2        4.330000        9.960001       16.890001
  OW         6.260000       14.660001       12.580000
  HW1        7.180000       14.940001       12.320002
  HW2        5.820000       14.180001       11.820001
25
 generated by VMD
  C1         3.270000       10.490000       11.010000
  C2         2.530000        9.990001        9.960001
  C3         2.230000        8.640000        9.990001
  C4         2.720000        7.840000       11.000000
  C5         3.270000        8.480000       12.080001
  N6         3.490000        9.800000       12.140001
  H7         1.620000        8.180000        9.220000
  H8         3.620000       11.510000       10.940001
  H9         2.190000       10.580001        9.110001
  H10        2.560000        6.770000       11.040001
  H11        3.600000        7.880001       12.920000
  P1         6.200000       12.000000       13.150001
  O2         6.750000       11.780001       11.850000
  O3         7.130001       12.710000       14.160000
  H4         7.870001       12.100000       14.180001
  O5         4.890000       12.830001       13.390001
  H6         4.780000       12.870001       14.350000
  O7         5.610001       10.750000       13.830000
  H8         4.960000       10.500001       13.170000
  OW         5.160000       12.400000       16.230000
  HW1        5.160000       12.890000       17.100000
  HW2        5.250000       11.420001       16.400002
  OW         9.310000       11.000000       14.310001
  HW1        9.140000       10.020000       14.220000
  HW2       10.230000       11.210001       13.980001
25
 generated by VMD
  C1         4.000000       10.410000       10.600000
  C2         2.610000       10.320001       10.410000
  C3         1.960000        9.190001       10.790000
  C4         2.710000        8.160001       11.310000
  C5         4.050000        8.270000       11.450001
  N6         4.710000        9.400001       11.110001
  H7         0.880000        9.120001       10.670000
  H8         4.550000       11.220001       10.130000
  H9         2.080000       11.140001        9.930000
  H10        2.190000        7.270000       11.650001
  H11        4.610000        7.440000       11.870001
  P1         5.770000       11.990000       13.450001
  O2         5.540000       12.990000       12.440001
  O3         6.570000       12.460001       14.740001
  H4         7.260000       13.000001       14.330001
  O5         4.630000       11.160001       14.200001
  H6         5.000000       10.430001       14.710001
  O7         6.480000       10.720000       12.890000
  H8         5.780000       10.310000       12.360001
  OW         5.960000        9.700001       16.080000
  HW1        6.570000       10.490000       16.170002
  HW2        6.180000        9.030001       16.800001
  OW         8.350000       14.010000       13.470001
  HW1        9.340000       14.050001       13.400001
  HW2        7.940001       14.370001       12.630000
25
 generated by VMD
  C1         3.890000        8.400001       11.610001
  C2         2.490000        8.320000       11.630001
  C3         1.690000        9.360001       11.180000
  C4         2.380000       10.510000       10.730000
  C5         3.770000       10.500001       10.770000
  N6         4.500000        9.460000       11.220001
  H7         0.620000        9.210001       11.160001
  H8         4.490000        7.600000       12.020000
  H9         1.950000        7.450001       11.960001
  H10        1.910000       11.380000       10.290001
  H11        4.320000       11.400002       10.500001
  P1         6.280000       11.880001       13.300000
  O2         7.170000       11.760000       12.120000
  O3         7.000000       12.400000       14.540001
  H4         7.770000       11.820001       14.610001
  O5         4.980000       12.700001       13.370000
  H6         4.740000       12.550001       14.290000
  O7         5.760000       10.460000       13.720001
  H8         5.440001       10.130000       12.880001
  OW         3.720000       12.190001       15.640001
  HW1        3.810000       11.760000       16.540001
  HW2        2.880000       12.740001       15.620001
  OW         9.300001       11.120001       13.530001
  HW1       10.030001       10.490000       13.260001
  HW2        8.890000       11.520000       12.710000
25
 generated by VMD
  C1         3.500000       11.120001       11.110001
  C2         3.880000       10.380001       10.040001
  C3         3.540000        9.010000        9.980000
  C4         2.770000        8.510000       11.030001
  C5         2.440000        9.310000       12.070000
  N6         2.840000       10.590000       12.140001
  H7         3.790000        8.280001        9.220000
  H8         3.810000       12.160001       11.100000
  H9         4.550000       10.880001        9.350000
  H10        2.450000        7.470000       11.100000
  H11        1.780000        9.000000       12.870001
  P1         6.210001       11.150000       13.510000
  O2         6.800000       10.330000       12.440001
  O3         7.150001       11.310000       14.710001
  H4         7.890000       11.750001       14.280001
  O5         5.580000       12.570001       13.260001
  H6         5.070000       12.720001       14.060000
  O7         4.860000       10.450001       14.000001
  H8         4.300000       10.460000       13.210001
  OW         3.850000       13.050001       15.240001
  HW1        3.170000       13.710001       15.550001
  HW2        4.070000       12.430000       15.990001
  OW         9.600000       12.100000       13.530001
  HW1        9.400001       11.590000       12.690001
  HW2       10.290001       12.800001       13.340001
25
 generated by VMD
  C1         2.490000        9.330000       11.870001
  C2         1.740000        8.920000       10.780001
  C3         2.130000        9.330000        9.490001
  C4         3.330000       10.080000        9.400001
  C5         4.160000       10.190001       10.550001
  N6         3.720000        9.950001       11.790000
  H7         1.540000        9.150001        8.600000
  H8         2.030000        9.100000       12.830001
  H9         0.840000        8.330001       10.860001
  H10        3.740000       10.530001        8.500000
  H11        5.170000       10.590000       10.400001
  P1         6.170001       11.180000       13.870001
  O2         6.780000        9.850000       13.860001
  O3         6.740000       12.100000       14.960001
  H4         7.650001       11.830001       14.780001
  O5         6.350000       12.190001       12.670001
  H6         5.810000       12.910000       13.010001
  O7         4.600000       11.290001       14.060000
  H8         4.210001       10.820000       13.310001
  OW         5.200000       14.380001       13.880000
  HW1        5.350000       14.010000       14.800000
  HW2        4.680000       15.230001       13.940001
  OW         9.240000       10.860001       15.070001
  HW1        8.810000       10.150002       14.510001
  HW2       10.050000       10.490000       15.520000
25
 generated by VMD
  C1         2.460000       10.510000       11.640000
  C2         2.270000       10.640000       10.270000
  C3         3.040000        9.900001        9.400001
  C4         3.870000        8.970000        9.980000
  C5         3.950000        8.820001       11.390000
  N6         3.330000        9.660000       12.200001
  H7         2.990000        9.970000        8.320000
  H8         1.900000       11.070000       12.370001
  H9         1.460000       11.220001        9.840000
  H10        4.530000        8.300000        9.440001
  H11        4.660000        8.050001       11.710000
  P1         6.030001       11.340000       13.610001
  O2         6.470000       10.360001       12.610001
  O3         7.120000       11.650001       14.650001
  H4         7.960001       11.310000       14.310001
  O5         5.600000       12.790001       13.190001
  H6         5.330000       13.190001       14.020000
  O7         4.750000       10.840001       14.380001
  H8         4.340000       10.470000       13.590001
  OW         4.900000       13.930000       15.530001
  HW1        5.430000       13.390001       16.180000
  HW2        4.270000       14.530001       16.030001
  OW         9.260000       10.410000       13.730000
  HW1        8.660001        9.970000       13.070001
  HW2       10.130000        9.910001       13.770000
25
 generated by VMD
  C1         3.630000       11.030001       10.700001
  C2         3.410000       10.559999        9.470000
  C3         2.900000        9.290000        9.270000
  C4         2.570000        8.550000       10.420000
  C5         2.840000        9.130000       11.710000
  N6         3.250000       10.410000       11.820001
  H7         2.870000        8.830000        8.290001
  H8         4.100000       11.990000       10.890001
  H9         3.780000       11.150000        8.640000
  H10        2.190000        7.550001       10.530001
  H11        2.620000        8.660001       12.660000
  P1         6.000000       11.080000       13.780001
  O2         6.280000       10.210000       12.600001
  O3         7.020000       10.910001       14.910001
  H4         7.780001       11.200000       14.380001
  O5         6.050000       12.600001       13.600000
  H6         5.790000       12.900001       14.480000
  O7         4.500000       11.090001       14.340000
  H8         4.030000       10.970000       13.500000
  OW         5.190001       13.670001       15.920001
  HW1        4.720000       14.540001       16.049999
  HW2        4.710000       12.950001       16.420000
  OW         9.340000       11.420001       13.580000
  HW1       10.180000       11.100000       14.030001
  HW2        9.550000       11.670000       12.640000
25
 generated by VMD
  C1         2.430000       10.400001       11.980000
  C2         1.450000       10.260000       11.060000
  C3         1.770000       10.050000        9.720000
  C4         3.100000        9.970000        9.390000
  C5         4.070000       10.090000       10.420000
  N6         3.710000       10.290001       11.700001
  H7         1.040000       10.010000        8.930000
  H8         2.330000       10.690001       13.020000
  H9         0.440000       10.410000       11.410000
  H10        3.580000        9.840000        8.420001
  H11        5.120000       10.130000       10.130000
  P1         6.540000       11.100000       13.620001
  O2         7.100000       10.000000       12.860001
  O3         7.450001       11.660000       14.780001
  H4         7.900000       10.880001       15.110001
  O5         6.170001       12.440001       12.910000
  H6         5.860000       13.120001       13.520001
  O7         5.150001       10.670000       14.240000
  H8         4.870000       10.120001       13.500000
  OW         4.720000       14.250001       14.170000
  HW1        4.230000       13.680000       14.830000
  HW2        4.400000       15.190001       14.220000
  OW         8.540000        9.390000       15.560001
  HW1        8.550000        8.620001       16.190001
  HW2        8.830000        9.090000       14.650001
